176595
  -OEChem-02142402162D

 63 65  0     0  0  0  0  0  0999 V2000
    8.3312    3.0000    0.0000 Br  0  0  0  0  0  0  0  0  0  0  0  0
    6.5991    0.0000    0.0000 Br  0  0  0  0  0  0  0  0  0  0  0  0
    0.5369    4.5000    0.0000 O   0  0  0  0  0  0  0  0  0  0  0  0
    3.2907   11.5937    0.0000 O   0  0  0  0  0  0  0  0  0  0  0  0
    1.5586    8.5937    0.0000 O   0  0  0  0  0  0  0  0  0  0  0  0
    6.7028   12.5057    0.0000 O   0  0  0  0  0  0  0  0  0  0  0  0
    7.0600   10.8108    0.0000 O   0  0  0  0  0  0  0  0  0  0  0  0
    4.0010    2.5000    0.0000 N   0  0  0  0  0  0  0  0  0  0  0  0
    6.5991    4.0000    0.0000 N   0  0  0  0  0  0  0  0  0  0  0  0
    5.1030   10.3984    0.0000 N   0  0  0  0  0  0  0  0  0  0  0  0
    3.2907    8.5937    0.0000 N   0  0  0  0  0  0  0  0  0  0  0  0
    2.4247   10.0937    0.0000 N   0  0  0  0  0  0  0  0  0  0  0  0
    5.1030    8.7889    0.0000 N   0  0  0  0  0  0  0  0  0  0  0  0
    3.1350    3.0000    0.0000 C   0  0  0  0  0  0  0  0  0  0  0  0
    2.2690    2.5000    0.0000 C   0  0  0  0  0  0  0  0  0  0  0  0
    3.1350    4.0000    0.0000 C   0  0  0  0  0  0  0  0  0  0  0  0
    1.4030    4.0000    0.0000 C   0  0  0  0  0  0  0  0  0  0  0  0
    1.4030    3.0000    0.0000 C   0  0  0  0  0  0  0  0  0  0  0  0
    2.2690    4.5000    0.0000 C   0  0  0  0  0  0  0  0  0  0  0  0
    4.8671    3.0000    0.0000 C   0  0  0  0  0  0  0  0  0  0  0  0
    5.7331    2.5000    0.0000 C   0  0  0  0  0  0  0  0  0  0  0  0
    6.5991    3.0000    0.0000 C   0  0  0  0  0  0  0  0  0  0  0  0
    5.7331    1.5000    0.0000 C   0  0  0  0  0  0  0  0  0  0  0  0
    7.4651    2.5000    0.0000 C   0  0  0  0  0  0  0  0  0  0  0  0
    6.5991    1.0000    0.0000 C   0  0  0  0  0  0  0  0  0  0  0  0
    4.1567   10.0937    0.0000 C   0  0  0  0  0  0  0  0  0  0  0  0
    7.4651    1.5000    0.0000 C   0  0  0  0  0  0  0  0  0  0  0  0
    4.1567    9.0937    0.0000 C   0  0  0  0  0  0  0  0  0  0  0  0
    3.2907   10.5937    0.0000 C   0  0  0  0  0  0  0  0  0  0  0  0
    2.4247    9.0937    0.0000 C   0  0  0  0  0  0  0  0  0  0  0  0
    5.4136   11.3489    0.0000 C   0  0  0  0  0  0  0  0  0  0  0  0
    5.6866    9.5937    0.0000 C   0  0  0  0  0  0  0  0  0  0  0  0
    3.2907    7.5937    0.0000 C   0  0  0  0  0  0  0  0  0  0  0  0
    1.5586   10.5937    0.0000 C   0  0  0  0  0  0  0  0  0  0  0  0
    6.3921   11.5551    0.0000 C   0  0  0  0  0  0  0  0  0  0  0  0
    3.1350    2.3800    0.0000 H   0  0  0  0  0  0  0  0  0  0  0  0
    1.8705    2.0250    0.0000 H   0  0  0  0  0  0  0  0  0  0  0  0
    2.6675    2.0250    0.0000 H   0  0  0  0  0  0  0  0  0  0  0  0
    3.7456    3.8923    0.0000 H   0  0  0  0  0  0  0  0  0  0  0  0
    3.3471    4.5826    0.0000 H   0  0  0  0  0  0  0  0  0  0  0  0
    1.4030    4.6200    0.0000 H   0  0  0  0  0  0  0  0  0  0  0  0
    0.7924    3.1077    0.0000 H   0  0  0  0  0  0  0  0  0  0  0  0
    1.1909    2.4174    0.0000 H   0  0  0  0  0  0  0  0  0  0  0  0
    2.6675    4.9750    0.0000 H   0  0  0  0  0  0  0  0  0  0  0  0
    1.8705    4.9750    0.0000 H   0  0  0  0  0  0  0  0  0  0  0  0
    4.0010    1.8800    0.0000 H   0  0  0  0  0  0  0  0  0  0  0  0
    5.2656    3.4750    0.0000 H   0  0  0  0  0  0  0  0  0  0  0  0
    4.4685    3.4750    0.0000 H   0  0  0  0  0  0  0  0  0  0  0  0
    0.0000    4.1900    0.0000 H   0  0  0  0  0  0  0  0  0  0  0  0
    5.1962    1.1900    0.0000 H   0  0  0  0  0  0  0  0  0  0  0  0
    8.0021    1.1900    0.0000 H   0  0  0  0  0  0  0  0  0  0  0  0
    7.1360    4.3100    0.0000 H   0  0  0  0  0  0  0  0  0  0  0  0
    6.0622    4.3100    0.0000 H   0  0  0  0  0  0  0  0  0  0  0  0
    5.3930   11.9686    0.0000 H   0  0  0  0  0  0  0  0  0  0  0  0
    4.7998   11.4363    0.0000 H   0  0  0  0  0  0  0  0  0  0  0  0
    6.3066    9.5937    0.0000 H   0  0  0  0  0  0  0  0  0  0  0  0
    2.6707    7.5937    0.0000 H   0  0  0  0  0  0  0  0  0  0  0  0
    3.2907    6.9737    0.0000 H   0  0  0  0  0  0  0  0  0  0  0  0
    3.9107    7.5937    0.0000 H   0  0  0  0  0  0  0  0  0  0  0  0
    1.8686   11.1306    0.0000 H   0  0  0  0  0  0  0  0  0  0  0  0
    1.0217   10.9037    0.0000 H   0  0  0  0  0  0  0  0  0  0  0  0
    1.2486   10.0567    0.0000 H   0  0  0  0  0  0  0  0  0  0  0  0
    7.3094   12.6335    0.0000 H   0  0  0  0  0  0  0  0  0  0  0  0
  1 24  1  0  0  0  0
  2 25  1  0  0  0  0
  3 17  1  0  0  0  0
  3 49  1  0  0  0  0
  4 29  2  0  0  0  0
  5 30  2  0  0  0  0
  6 35  1  0  0  0  0
  6 63  1  0  0  0  0
  7 35  2  0  0  0  0
  8 14  1  0  0  0  0
  8 20  1  0  0  0  0
  8 46  1  0  0  0  0
  9 22  1  0  0  0  0
  9 52  1  0  0  0  0
  9 53  1  0  0  0  0
 10 26  1  0  0  0  0
 10 31  1  0  0  0  0
 10 32  1  0  0  0  0
 11 28  1  0  0  0  0
 11 30  1  0  0  0  0
 11 33  1  0  0  0  0
 12 29  1  0  0  0  0
 12 30  1  0  0  0  0
 12 34  1  0  0  0  0
 13 28  1  0  0  0  0
 13 32  2  0  0  0  0
 14 15  1  0  0  0  0
 14 16  1  0  0  0  0
 14 36  1  0  0  0  0
 15 18  1  0  0  0  0
 15 37  1  0  0  0  0
 15 38  1  0  0  0  0
 16 19  1  0  0  0  0
 16 39  1  0  0  0  0
 16 40  1  0  0  0  0
 17 18  1  0  0  0  0
 17 19  1  0  0  0  0
 17 41  1  0  0  0  0
 18 42  1  0  0  0  0
 18 43  1  0  0  0  0
 19 44  1  0  0  0  0
 19 45  1  0  0  0  0
 20 21  1  0  0  0  0
 20 47  1  0  0  0  0
 20 48  1  0  0  0  0
 21 22  2  0  0  0  0
 21 23  1  0  0  0  0
 22 24  1  0  0  0  0
 23 25  2  0  0  0  0
 23 50  1  0  0  0  0
 24 27  2  0  0  0  0
 25 27  1  0  0  0  0
 26 28  2  0  0  0  0
 26 29  1  0  0  0  0
 27 51  1  0  0  0  0
 31 35  1  0  0  0  0
 31 54  1  0  0  0  0
 31 55  1  0  0  0  0
 32 56  1  0  0  0  0
 33 57  1  0  0  0  0
 33 58  1  0  0  0  0
 33 59  1  0  0  0  0
 34 60  1  0  0  0  0
 34 61  1  0  0  0  0
 34 62  1  0  0  0  0
M  END
> <PUBCHEM_COMPOUND_CID>
176595

> <PUBCHEM_COMPOUND_CANONICALIZED>
1

> <PUBCHEM_CACTVS_COMPLEXITY>
645

> <PUBCHEM_CACTVS_HBOND_ACCEPTOR>
8

> <PUBCHEM_CACTVS_HBOND_DONOR>
4

> <PUBCHEM_CACTVS_ROTATABLE_BOND>
5

> <PUBCHEM_CACTVS_SUBSKEYS>
AAADceB7uAAAGAAAAAAAAAAAAAAAAWAAAAA8YIAAAAAAAFgBwAAAHgBQCAABrDzhngY3+JfMEgCoAyfzfACCgC03EKQB2IGoVOiKeCrA2bGUYIhslyLYynewwAAOAAAgEAAiAAgAgEAgAEQAEAAAAAAAAA==

> <PUBCHEM_IUPAC_OPENEYE_NAME>
4-[(2-amino-3,5-dibromo-phenyl)methylamino]cyclohexanol;2-(1,3-dimethyl-2,6-dioxo-purin-7-yl)acetic acid

> <PUBCHEM_IUPAC_CAS_NAME>
4-[(2-amino-3,5-dibromophenyl)methylamino]-1-cyclohexanol;2-(1,3-dimethyl-2,6-dioxo-7-purinyl)acetic acid

> <PUBCHEM_IUPAC_NAME_MARKUP>
4-[(2-amino-3,5-dibromophenyl)methylamino]cyclohexan-1-ol;2-(1,3-dimethyl-2,6-dioxopurin-7-yl)acetic acid

> <PUBCHEM_IUPAC_NAME>
4-[(2-amino-3,5-dibromophenyl)methylamino]cyclohexan-1-ol;2-(1,3-dimethyl-2,6-dioxopurin-7-yl)acetic acid

> <PUBCHEM_IUPAC_SYSTEMATIC_NAME>
4-[[2-azanyl-3,5-bis(bromanyl)phenyl]methylamino]cyclohexan-1-ol;2-[1,3-dimethyl-2,6-bis(oxidanylidene)purin-7-yl]ethanoic acid

> <PUBCHEM_IUPAC_TRADITIONAL_NAME>
4-[(2-amino-3,5-dibromo-benzyl)amino]cyclohexanol;2-(2,6-diketo-1,3-dimethyl-purin-7-yl)acetic acid

> <PUBCHEM_IUPAC_INCHI>
InChI=1S/C13H18Br2N2O.C9H10N4O4/c14-9-5-8(13(16)12(15)6-9)7-17-10-1-3-11(18)4-2-10;1-11-7-6(8(16)12(2)9(11)17)13(4-10-7)3-5(14)15/h5-6,10-11,17-18H,1-4,7,16H2;4H,3H2,1-2H3,(H,14,15)

> <PUBCHEM_IUPAC_INCHIKEY>
IPUHJDQWESJTGD-UHFFFAOYSA-N

> <PUBCHEM_EXACT_MASS>
616.04674

> <PUBCHEM_MOLECULAR_FORMULA>
C22H28Br2N6O5

> <PUBCHEM_MOLECULAR_WEIGHT>
616.3

> <PUBCHEM_OPENEYE_CAN_SMILES>
CN1C2=C(C(=O)N(C1=O)C)N(C=N2)CC(=O)O.C1CC(CCC1NCC2=C(C(=CC(=C2)Br)Br)N)O

> <PUBCHEM_OPENEYE_ISO_SMILES>
CN1C2=C(C(=O)N(C1=O)C)N(C=N2)CC(=O)O.C1CC(CCC1NCC2=C(C(=CC(=C2)Br)Br)N)O

> <PUBCHEM_CACTVS_TPSA>
154

> <PUBCHEM_MONOISOTOPIC_WEIGHT>
614.04879

> <PUBCHEM_TOTAL_CHARGE>
0

> <PUBCHEM_HEAVY_ATOM_COUNT>
35

> <PUBCHEM_ATOM_DEF_STEREO_COUNT>
0

> <PUBCHEM_ATOM_UDEF_STEREO_COUNT>
0

> <PUBCHEM_BOND_DEF_STEREO_COUNT>
0

> <PUBCHEM_BOND_UDEF_STEREO_COUNT>
0

> <PUBCHEM_ISOTOPIC_ATOM_COUNT>
0

> <PUBCHEM_COMPONENT_COUNT>
2

> <PUBCHEM_CACTVS_TAUTO_COUNT>
-1

> <PUBCHEM_COORDINATE_TYPE>
1
5
255

> <PUBCHEM_BONDANNOTATIONS>
10  26  8
10  32  8
11  28  8
11  30  8
12  29  8
12  30  8
13  28  8
13  32  8
21  22  8
21  23  8
22  24  8
23  25  8
24  27  8
25  27  8
26  28  8
26  29  8

$$$$
