14647596
  -OEChem-02142402082D

 26 27  0     1  0  0  0  0  0999 V2000
    6.9473    0.0547    0.0000 O   0  0  0  0  0  0  0  0  0  0  0  0
    6.9473   -1.5547    0.0000 O   0  0  0  0  0  0  0  0  0  0  0  0
    2.5369   -0.2500    0.0000 N   0  0  0  0  0  0  0  0  0  0  0  0
    3.4030    0.2500    0.0000 C   0  0  3  0  0  0  0  0  0  0  0  0
    4.2690   -0.2500    0.0000 C   0  0  0  0  0  0  0  0  0  0  0  0
    3.4030    1.2500    0.0000 C   0  0  0  0  0  0  0  0  0  0  0  0
    5.1350    0.2500    0.0000 C   0  0  0  0  0  0  0  0  0  0  0  0
    6.0010   -0.2500    0.0000 C   0  0  0  0  0  0  0  0  0  0  0  0
    4.2690   -1.2500    0.0000 C   0  0  0  0  0  0  0  0  0  0  0  0
    6.0010   -1.2500    0.0000 C   0  0  0  0  0  0  0  0  0  0  0  0
    5.1350   -1.7500    0.0000 C   0  0  0  0  0  0  0  0  0  0  0  0
    2.5369    1.7500    0.0000 C   0  0  0  0  0  0  0  0  0  0  0  0
    7.5309   -0.7500    0.0000 C   0  0  0  0  0  0  0  0  0  0  0  0
    3.4030   -0.3700    0.0000 H   0  0  0  0  0  0  0  0  0  0  0  0
    4.0135    1.1423    0.0000 H   0  0  0  0  0  0  0  0  0  0  0  0
    3.6150    1.8326    0.0000 H   0  0  0  0  0  0  0  0  0  0  0  0
    5.1350    0.8700    0.0000 H   0  0  0  0  0  0  0  0  0  0  0  0
    3.7320   -1.5600    0.0000 H   0  0  0  0  0  0  0  0  0  0  0  0
    5.1350   -2.3700    0.0000 H   0  0  0  0  0  0  0  0  0  0  0  0
    2.8469    2.2869    0.0000 H   0  0  0  0  0  0  0  0  0  0  0  0
    2.0000    2.0600    0.0000 H   0  0  0  0  0  0  0  0  0  0  0  0
    2.2269    1.2131    0.0000 H   0  0  0  0  0  0  0  0  0  0  0  0
    2.0000    0.0600    0.0000 H   0  0  0  0  0  0  0  0  0  0  0  0
    2.5369   -0.8700    0.0000 H   0  0  0  0  0  0  0  0  0  0  0  0
    7.9917   -1.1647    0.0000 H   0  0  0  0  0  0  0  0  0  0  0  0
    7.9917   -0.3353    0.0000 H   0  0  0  0  0  0  0  0  0  0  0  0
  1  8  1  0  0  0  0
  1 13  1  0  0  0  0
  2 10  1  0  0  0  0
  2 13  1  0  0  0  0
  3  4  1  0  0  0  0
  3 23  1  0  0  0  0
  3 24  1  0  0  0  0
  4  5  1  0  0  0  0
  4  6  1  0  0  0  0
  4 14  1  0  0  0  0
  5  7  2  0  0  0  0
  5  9  1  0  0  0  0
  6 12  1  0  0  0  0
  6 15  1  0  0  0  0
  6 16  1  0  0  0  0
  7  8  1  0  0  0  0
  7 17  1  0  0  0  0
  8 10  2  0  0  0  0
  9 11  2  0  0  0  0
  9 18  1  0  0  0  0
 10 11  1  0  0  0  0
 11 19  1  0  0  0  0
 12 20  1  0  0  0  0
 12 21  1  0  0  0  0
 12 22  1  0  0  0  0
 13 25  1  0  0  0  0
 13 26  1  0  0  0  0
M  END
> <PUBCHEM_COMPOUND_CID>
14647596

> <PUBCHEM_COMPOUND_CANONICALIZED>
1

> <PUBCHEM_CACTVS_COMPLEXITY>
174

> <PUBCHEM_CACTVS_HBOND_ACCEPTOR>
3

> <PUBCHEM_CACTVS_HBOND_DONOR>
1

> <PUBCHEM_CACTVS_ROTATABLE_BOND>
2

> <PUBCHEM_CACTVS_SUBSKEYS>
AAADccByMAAAAAAAAAAAAAAAAAAAASAAAAAwAAAAAAAAAEgBAAAAHgAQAAAADCzBmAcyDoBABACAAiBCAACCCAAgIAAIiIAGjIgdJiKEsRugMCJk0BEOqAew0LEOIAABAAAAQABAAAIAAACAAAAAAAAAAA==

> <PUBCHEM_IUPAC_OPENEYE_NAME>
1-(1,3-benzodioxol-5-yl)propan-1-amine

> <PUBCHEM_IUPAC_CAS_NAME>
1-(1,3-benzodioxol-5-yl)-1-propanamine

> <PUBCHEM_IUPAC_NAME_MARKUP>
1-(1,3-benzodioxol-5-yl)propan-1-amine

> <PUBCHEM_IUPAC_NAME>
1-(1,3-benzodioxol-5-yl)propan-1-amine

> <PUBCHEM_IUPAC_SYSTEMATIC_NAME>
1-(1,3-benzodioxol-5-yl)propan-1-amine

> <PUBCHEM_IUPAC_TRADITIONAL_NAME>
1-(1,3-benzodioxol-5-yl)propylamine

> <PUBCHEM_IUPAC_INCHI>
InChI=1S/C10H13NO2/c1-2-8(11)7-3-4-9-10(5-7)13-6-12-9/h3-5,8H,2,6,11H2,1H3

> <PUBCHEM_IUPAC_INCHIKEY>
VEOUOCLRLNJOLJ-UHFFFAOYSA-N

> <PUBCHEM_XLOGP3>
1.7

> <PUBCHEM_EXACT_MASS>
179.094628657

> <PUBCHEM_MOLECULAR_FORMULA>
C10H13NO2

> <PUBCHEM_MOLECULAR_WEIGHT>
179.22

> <PUBCHEM_OPENEYE_CAN_SMILES>
CCC(C1=CC2=C(C=C1)OCO2)N

> <PUBCHEM_OPENEYE_ISO_SMILES>
CCC(C1=CC2=C(C=C1)OCO2)N

> <PUBCHEM_CACTVS_TPSA>
44.5

> <PUBCHEM_MONOISOTOPIC_WEIGHT>
179.094628657

> <PUBCHEM_TOTAL_CHARGE>
0

> <PUBCHEM_HEAVY_ATOM_COUNT>
13

> <PUBCHEM_ATOM_DEF_STEREO_COUNT>
0

> <PUBCHEM_ATOM_UDEF_STEREO_COUNT>
1

> <PUBCHEM_BOND_DEF_STEREO_COUNT>
0

> <PUBCHEM_BOND_UDEF_STEREO_COUNT>
0

> <PUBCHEM_ISOTOPIC_ATOM_COUNT>
0

> <PUBCHEM_COMPONENT_COUNT>
1

> <PUBCHEM_CACTVS_TAUTO_COUNT>
1

> <PUBCHEM_COORDINATE_TYPE>
1
5
255

> <PUBCHEM_BONDANNOTATIONS>
10  11  8
4  3  3
5  7  8
5  9  8
7  8  8
8  10  8
9  11  8

$$$$
