10182969
  -OEChem-02142402112D

 59 63  0     0  0  0  0  0  0999 V2000
    8.0622   -0.8689    0.0000 O   0  0  0  0  0  0  0  0  0  0  0  0
    2.8660    0.1311    0.0000 O   0  0  0  0  0  0  0  0  0  0  0  0
    9.5172    3.6307    0.0000 O   0  0  0  0  0  0  0  0  0  0  0  0
   11.1171   -3.4757    0.0000 O   0  0  0  0  0  0  0  0  0  0  0  0
    7.1962    0.6311    0.0000 N   0  0  0  0  0  0  0  0  0  0  0  0
    3.7320   -1.3689    0.0000 N   0  0  0  0  0  0  0  0  0  0  0  0
    9.8744    0.3264    0.0000 N   0  0  0  0  0  0  0  0  0  0  0  0
   10.4580    1.1311    0.0000 N   0  0  0  0  0  0  0  0  0  0  0  0
   11.1636    3.0926    0.0000 N   0  0  0  0  0  0  0  0  0  0  0  0
    8.0622    2.1311    0.0000 C   0  0  0  0  0  0  0  0  0  0  0  0
    7.1962    1.6311    0.0000 C   0  0  0  0  0  0  0  0  0  0  0  0
    8.9282    1.6311    0.0000 C   0  0  0  0  0  0  0  0  0  0  0  0
    8.9282    0.6311    0.0000 C   0  0  0  0  0  0  0  0  0  0  0  0
    3.7320   -2.3689    0.0000 C   0  0  0  0  0  0  0  0  0  0  0  0
    2.8660   -2.8689    0.0000 C   0  0  0  0  0  0  0  0  0  0  0  0
    2.0000   -2.3689    0.0000 C   0  0  0  0  0  0  0  0  0  0  0  0
    2.0000   -1.3689    0.0000 C   0  0  0  0  0  0  0  0  0  0  0  0
    8.0622    0.1311    0.0000 C   0  0  0  0  0  0  0  0  0  0  0  0
    6.3301    0.1311    0.0000 C   0  0  0  0  0  0  0  0  0  0  0  0
    4.5981   -0.8689    0.0000 C   0  0  0  0  0  0  0  0  0  0  0  0
    2.8660   -0.8689    0.0000 C   0  0  0  0  0  0  0  0  0  0  0  0
    9.8744    1.9358    0.0000 C   0  0  0  0  0  0  0  0  0  0  0  0
    6.3301   -0.8689    0.0000 C   0  0  0  0  0  0  0  0  0  0  0  0
    5.4641    0.6311    0.0000 C   0  0  0  0  0  0  0  0  0  0  0  0
    5.4641   -1.3689    0.0000 C   0  0  0  0  0  0  0  0  0  0  0  0
    4.5981    0.1311    0.0000 C   0  0  0  0  0  0  0  0  0  0  0  0
   10.1851   -0.6241    0.0000 C   0  0  0  0  0  0  0  0  0  0  0  0
   10.1851    2.8864    0.0000 C   0  0  0  0  0  0  0  0  0  0  0  0
    9.5172   -1.3684    0.0000 C   0  0  0  0  0  0  0  0  0  0  0  0
   11.1636   -0.8304    0.0000 C   0  0  0  0  0  0  0  0  0  0  0  0
    9.8279   -2.3190    0.0000 C   0  0  0  0  0  0  0  0  0  0  0  0
   11.4743   -1.7809    0.0000 C   0  0  0  0  0  0  0  0  0  0  0  0
   10.8064   -2.5252    0.0000 C   0  0  0  0  0  0  0  0  0  0  0  0
   12.0956   -3.6819    0.0000 C   0  0  0  0  0  0  0  0  0  0  0  0
    8.4607    2.6061    0.0000 H   0  0  0  0  0  0  0  0  0  0  0  0
    7.6636    2.6061    0.0000 H   0  0  0  0  0  0  0  0  0  0  0  0
    6.9841    2.2137    0.0000 H   0  0  0  0  0  0  0  0  0  0  0  0
    6.5856    1.5235    0.0000 H   0  0  0  0  0  0  0  0  0  0  0  0
    2.4675   -3.3438    0.0000 H   0  0  0  0  0  0  0  0  0  0  0  0
    3.2646   -3.3438    0.0000 H   0  0  0  0  0  0  0  0  0  0  0  0
    3.9441   -2.9515    0.0000 H   0  0  0  0  0  0  0  0  0  0  0  0
    4.3426   -2.2612    0.0000 H   0  0  0  0  0  0  0  0  0  0  0  0
    1.3894   -2.2612    0.0000 H   0  0  0  0  0  0  0  0  0  0  0  0
    1.7880   -2.9515    0.0000 H   0  0  0  0  0  0  0  0  0  0  0  0
    1.7880   -0.7863    0.0000 H   0  0  0  0  0  0  0  0  0  0  0  0
    1.3894   -1.4765    0.0000 H   0  0  0  0  0  0  0  0  0  0  0  0
    6.8671   -1.1789    0.0000 H   0  0  0  0  0  0  0  0  0  0  0  0
    5.4641    1.2511    0.0000 H   0  0  0  0  0  0  0  0  0  0  0  0
    5.4641   -1.9889    0.0000 H   0  0  0  0  0  0  0  0  0  0  0  0
    4.0611    0.4411    0.0000 H   0  0  0  0  0  0  0  0  0  0  0  0
    8.9106   -1.2406    0.0000 H   0  0  0  0  0  0  0  0  0  0  0  0
   11.5777   -0.3689    0.0000 H   0  0  0  0  0  0  0  0  0  0  0  0
    9.4138   -2.7804    0.0000 H   0  0  0  0  0  0  0  0  0  0  0  0
   12.0809   -1.9087    0.0000 H   0  0  0  0  0  0  0  0  0  0  0  0
   11.3562    3.6819    0.0000 H   0  0  0  0  0  0  0  0  0  0  0  0
   11.5777    2.6311    0.0000 H   0  0  0  0  0  0  0  0  0  0  0  0
   11.9677   -4.2886    0.0000 H   0  0  0  0  0  0  0  0  0  0  0  0
   12.7023   -3.8098    0.0000 H   0  0  0  0  0  0  0  0  0  0  0  0
   12.2234   -3.0752    0.0000 H   0  0  0  0  0  0  0  0  0  0  0  0
  1 18  2  0  0  0  0
  2 21  2  0  0  0  0
  3 28  2  0  0  0  0
  4 33  1  0  0  0  0
  4 34  1  0  0  0  0
  5 11  1  0  0  0  0
  5 18  1  0  0  0  0
  5 19  1  0  0  0  0
  6 14  1  0  0  0  0
  6 20  1  0  0  0  0
  6 21  1  0  0  0  0
  7  8  1  0  0  0  0
  7 13  1  0  0  0  0
  7 27  1  0  0  0  0
  8 22  2  0  0  0  0
  9 28  1  0  0  0  0
  9 55  1  0  0  0  0
  9 56  1  0  0  0  0
 10 11  1  0  0  0  0
 10 12  1  0  0  0  0
 10 35  1  0  0  0  0
 10 36  1  0  0  0  0
 11 37  1  0  0  0  0
 11 38  1  0  0  0  0
 12 13  2  0  0  0  0
 12 22  1  0  0  0  0
 13 18  1  0  0  0  0
 14 15  1  0  0  0  0
 14 41  1  0  0  0  0
 14 42  1  0  0  0  0
 15 16  1  0  0  0  0
 15 39  1  0  0  0  0
 15 40  1  0  0  0  0
 16 17  1  0  0  0  0
 16 43  1  0  0  0  0
 16 44  1  0  0  0  0
 17 21  1  0  0  0  0
 17 45  1  0  0  0  0
 17 46  1  0  0  0  0
 19 23  2  0  0  0  0
 19 24  1  0  0  0  0
 20 25  2  0  0  0  0
 20 26  1  0  0  0  0
 22 28  1  0  0  0  0
 23 25  1  0  0  0  0
 23 47  1  0  0  0  0
 24 26  2  0  0  0  0
 24 48  1  0  0  0  0
 25 49  1  0  0  0  0
 26 50  1  0  0  0  0
 27 29  2  0  0  0  0
 27 30  1  0  0  0  0
 29 31  1  0  0  0  0
 29 51  1  0  0  0  0
 30 32  2  0  0  0  0
 30 52  1  0  0  0  0
 31 33  2  0  0  0  0
 31 53  1  0  0  0  0
 32 33  1  0  0  0  0
 32 54  1  0  0  0  0
 34 57  1  0  0  0  0
 34 58  1  0  0  0  0
 34 59  1  0  0  0  0
M  END
> <PUBCHEM_COMPOUND_CID>
10182969

> <PUBCHEM_COMPOUND_CANONICALIZED>
1

> <PUBCHEM_CACTVS_COMPLEXITY>
777

> <PUBCHEM_CACTVS_HBOND_ACCEPTOR>
5

> <PUBCHEM_CACTVS_HBOND_DONOR>
1

> <PUBCHEM_CACTVS_ROTATABLE_BOND>
5

> <PUBCHEM_CACTVS_SUBSKEYS>
AAADceB7uAAAAAAAAAAAAAAAAAAAAWAAAAA8eIEAAAAAAFgB0AAAHgAYAAAADAzBngYyxpNIBACqAyVyVACSDCAnIgAYmCGubNgMZnLE9fuUtShkzhHI6Qe8QwAKAECAAAAAAAAAgQAAAAAAAAAAAAAAAA==

> <PUBCHEM_IUPAC_OPENEYE_NAME>
1-(4-methoxyphenyl)-7-oxo-6-[4-(2-oxo-1-piperidyl)phenyl]-4,5-dihydropyrazolo[3,4-c]pyridine-3-carboxamide

> <PUBCHEM_IUPAC_CAS_NAME>
1-(4-methoxyphenyl)-7-oxo-6-[4-(2-oxo-1-piperidinyl)phenyl]-4,5-dihydropyrazolo[3,4-c]pyridine-3-carboxamide

> <PUBCHEM_IUPAC_NAME_MARKUP>
1-(4-methoxyphenyl)-7-oxo-6-[4-(2-oxopiperidin-1-yl)phenyl]-4,5-dihydropyrazolo[3,4-c]pyridine-3-carboxamide

> <PUBCHEM_IUPAC_NAME>
1-(4-methoxyphenyl)-7-oxo-6-[4-(2-oxopiperidin-1-yl)phenyl]-4,5-dihydropyrazolo[3,4-c]pyridine-3-carboxamide

> <PUBCHEM_IUPAC_SYSTEMATIC_NAME>
1-(4-methoxyphenyl)-7-oxidanylidene-6-[4-(2-oxidanylidenepiperidin-1-yl)phenyl]-4,5-dihydropyrazolo[3,4-c]pyridine-3-carboxamide

> <PUBCHEM_IUPAC_TRADITIONAL_NAME>
7-keto-6-[4-(2-ketopiperidino)phenyl]-1-(4-methoxyphenyl)-4,5-dihydropyrazolo[3,4-c]pyridine-3-carboxamide

> <PUBCHEM_IUPAC_INCHI>
InChI=1S/C25H25N5O4/c1-34-19-11-9-18(10-12-19)30-23-20(22(27-30)24(26)32)13-15-29(25(23)33)17-7-5-16(6-8-17)28-14-3-2-4-21(28)31/h5-12H,2-4,13-15H2,1H3,(H2,26,32)

> <PUBCHEM_IUPAC_INCHIKEY>
QNZCBYKSOIHPEH-UHFFFAOYSA-N

> <PUBCHEM_XLOGP3_AA>
2.2

> <PUBCHEM_EXACT_MASS>
459.19065430

> <PUBCHEM_MOLECULAR_FORMULA>
C25H25N5O4

> <PUBCHEM_MOLECULAR_WEIGHT>
459.5

> <PUBCHEM_OPENEYE_CAN_SMILES>
COC1=CC=C(C=C1)N2C3=C(CCN(C3=O)C4=CC=C(C=C4)N5CCCCC5=O)C(=N2)C(=O)N

> <PUBCHEM_OPENEYE_ISO_SMILES>
COC1=CC=C(C=C1)N2C3=C(CCN(C3=O)C4=CC=C(C=C4)N5CCCCC5=O)C(=N2)C(=O)N

> <PUBCHEM_CACTVS_TPSA>
111

> <PUBCHEM_MONOISOTOPIC_WEIGHT>
459.19065430

> <PUBCHEM_TOTAL_CHARGE>
0

> <PUBCHEM_HEAVY_ATOM_COUNT>
34

> <PUBCHEM_ATOM_DEF_STEREO_COUNT>
0

> <PUBCHEM_ATOM_UDEF_STEREO_COUNT>
0

> <PUBCHEM_BOND_DEF_STEREO_COUNT>
0

> <PUBCHEM_BOND_UDEF_STEREO_COUNT>
0

> <PUBCHEM_ISOTOPIC_ATOM_COUNT>
0

> <PUBCHEM_COMPONENT_COUNT>
1

> <PUBCHEM_CACTVS_TAUTO_COUNT>
-1

> <PUBCHEM_COORDINATE_TYPE>
1
5
255

> <PUBCHEM_BONDANNOTATIONS>
12  13  8
12  22  8
19  23  8
19  24  8
20  25  8
20  26  8
23  25  8
24  26  8
27  29  8
27  30  8
29  31  8
30  32  8
31  33  8
32  33  8
7  13  8
7  8  8
8  22  8

$$$$
