5476869
  -OEChem-02142402202D

 78 83  0     1  0  0  0  0  0999 V2000
    3.0000  -23.8000    0.0000 O   0  0  0  0  0  0  0  0  0  0  0  0
    5.4000  -24.3500    0.0000 O   0  0  0  0  0  0  0  0  0  0  0  0
    3.0000  -16.1500    0.0000 O   0  0  0  0  0  0  0  0  0  0  0  0
    1.0000  -18.3500    0.0000 O   0  0  0  0  0  0  0  0  0  0  0  0
    4.5000  -28.1500    0.0000 O   0  0  0  0  0  0  0  0  0  0  0  0
    1.5000  -14.1500    0.0000 O   0  0  0  0  0  0  0  0  0  0  0  0
    5.0000  -15.8000    0.0000 O   0  0  0  0  0  0  0  0  0  0  0  0
    3.0000  -18.1500    0.0000 O   0  0  0  0  0  0  0  0  0  0  0  0
    0.7500  -12.3500    0.0000 O   0  0  0  0  0  0  0  0  0  0  0  0
    1.5000   -6.3500    0.0000 O   0  0  0  0  0  0  0  0  0  0  0  0
    3.0000    0.0000    0.0000 O   0  0  0  0  0  0  0  0  0  0  0  0
    3.0000  -20.1500    0.0000 C   0  0  3  0  0  0  0  0  0  0  0  0
    3.7500  -21.8000    0.0000 C   0  0  3  0  0  0  0  0  0  0  0  0
    0.7500  -22.3500    0.0000 C   0  0  3  0  0  0  0  0  0  0  0  0
    5.2500  -22.0000    0.0000 C   0  0  3  0  0  0  0  0  0  0  0  0
    5.0000  -17.8000    0.0000 C   0  0  3  0  0  0  0  0  0  0  0  0
    4.2000  -24.0000    0.0000 C   0  0  0  0  0  0  0  0  0  0  0  0
    5.0000  -19.8000    0.0000 C   0  0  0  0  0  0  0  0  0  0  0  0
    0.6000  -24.3500    0.0000 C   0  0  3  0  0  0  0  0  0  0  0  0
    2.2500  -22.1500    0.0000 C   0  0  0  0  0  0  0  0  0  0  0  0
    1.8000  -24.1500    0.0000 C   0  0  0  0  0  0  0  0  0  0  0  0
    1.0000  -20.3500    0.0000 C   0  0  0  0  0  0  0  0  0  0  0  0
    4.5000  -26.1500    0.0000 C   0  0  3  0  0  0  0  0  0  0  0  0
    1.5000  -26.3500    0.0000 C   0  0  0  0  0  0  0  0  0  0  0  0
    1.5000  -28.3500    0.0000 C   0  0  0  0  0  0  0  0  0  0  0  0
    1.5000  -30.3500    0.0000 C   0  0  0  0  0  0  0  0  0  0  0  0
    4.5000  -14.3500    0.0000 C   0  0  0  0  0  0  0  0  0  0  0  0
    1.0000  -16.3500    0.0000 C   0  0  0  0  0  0  0  0  0  0  0  0
    3.5000  -14.0000    0.0000 C   0  0  3  0  0  0  0  0  0  0  0  0
    2.2500  -12.1500    0.0000 C   0  0  3  0  0  0  0  0  0  0  0  0
    3.7500  -11.8000    0.0000 C   0  0  0  0  0  0  0  0  0  0  0  0
    1.0000  -10.3500    0.0000 C   0  0  3  0  0  0  0  0  0  0  0  0
    2.5000  -13.8000    0.0000 C   0  0  0  0  0  0  0  0  0  0  0  0
    3.0000  -10.1500    0.0000 C   0  0  0  0  0  0  0  0  0  0  0  0
    1.0000   -8.3500    0.0000 C   0  0  0  0  0  0  0  0  0  0  0  0
    3.0000   -8.1500    0.0000 C   0  0  0  0  0  0  0  0  0  0  0  0
    4.5000   -4.1500    0.0000 C   0  0  3  0  0  0  0  0  0  0  0  0
    4.5000   -6.1500    0.0000 C   0  0  0  0  0  0  0  0  0  0  0  0
    1.5000   -2.3500    0.0000 C   0  0  3  0  0  0  0  0  0  0  0  0
    1.5000   -4.3500    0.0000 C   0  0  0  0  0  0  0  0  0  0  0  0
    6.7036  -21.8711    0.0000 H   0  0  0  0  0  0  0  0  0  0  0  0
    6.3200  -17.1777    0.0000 H   0  0  0  0  0  0  0  0  0  0  0  0
    4.1375  -25.4580    0.0000 H   0  0  0  0  0  0  0  0  0  0  0  0
    5.6547  -23.8842    0.0000 H   0  0  0  0  0  0  0  0  0  0  0  0
    3.7096  -19.1185    0.0000 H   0  0  0  0  0  0  0  0  0  0  0  0
    6.4570  -19.7175    0.0000 H   0  0  0  0  0  0  0  0  0  0  0  0
   -0.8373  -24.6026    0.0000 H   0  0  0  0  0  0  0  0  0  0  0  0
    0.8836  -21.6376    0.0000 H   0  0  0  0  0  0  0  0  0  0  0  0
    1.7376  -23.5164    0.0000 H   0  0  0  0  0  0  0  0  0  0  0  0
    3.6164  -22.6624    0.0000 H   0  0  0  0  0  0  0  0  0  0  0  0
    0.3548  -24.3530    0.0000 H   0  0  0  0  0  0  0  0  0  0  0  0
    2.8868  -23.1761    0.0000 H   0  0  0  0  0  0  0  0  0  0  0  0
    2.1991  -21.1818    0.0000 H   0  0  0  0  0  0  0  0  0  0  0  0
   -0.4565  -20.2593    0.0000 H   0  0  0  0  0  0  0  0  0  0  0  0
    5.8033  -25.4935    0.0000 H   0  0  0  0  0  0  0  0  0  0  0  0
    2.9268  -26.0437    0.0000 H   0  0  0  0  0  0  0  0  0  0  0  0
    0.0407  -30.3500    0.0000 H   0  0  0  0  0  0  0  0  0  0  0  0
    1.5000  -31.8093    0.0000 H   0  0  0  0  0  0  0  0  0  0  0  0
    2.9594  -30.3500    0.0000 H   0  0  0  0  0  0  0  0  0  0  0  0
    4.5000  -30.1500    0.0000 H   0  0  0  0  0  0  0  0  0  0  0  0
    4.9504  -14.1617    0.0000 H   0  0  0  0  0  0  0  0  0  0  0  0
    5.5000  -14.1500    0.0000 H   0  0  0  0  0  0  0  0  0  0  0  0
   -0.4565  -10.2593    0.0000 H   0  0  0  0  0  0  0  0  0  0  0  0
    1.0571  -14.0186    0.0000 H   0  0  0  0  0  0  0  0  0  0  0  0
    2.7186  -15.2429    0.0000 H   0  0  0  0  0  0  0  0  0  0  0  0
    3.9429  -13.5814    0.0000 H   0  0  0  0  0  0  0  0  0  0  0  0
    5.2500  -12.0000    0.0000 H   0  0  0  0  0  0  0  0  0  0  0  0
   -0.1284   -7.4246    0.0000 H   0  0  0  0  0  0  0  0  0  0  0  0
    2.4484   -8.5283    0.0000 H   0  0  0  0  0  0  0  0  0  0  0  0
    0.5000  -14.3500    0.0000 H   0  0  0  0  0  0  0  0  0  0  0  0
    5.0000   -9.8000    0.0000 H   0  0  0  0  0  0  0  0  0  0  0  0
    5.7699   -3.4310    0.0000 H   0  0  0  0  0  0  0  0  0  0  0  0
    5.0000   -7.8000    0.0000 H   0  0  0  0  0  0  0  0  0  0  0  0
    0.0991   -1.9410    0.0000 H   0  0  0  0  0  0  0  0  0  0  0  0
    0.0407   -4.3500    0.0000 H   0  0  0  0  0  0  0  0  0  0  0  0
    1.5000   -5.8094    0.0000 H   0  0  0  0  0  0  0  0  0  0  0  0
    2.9594   -4.3500    0.0000 H   0  0  0  0  0  0  0  0  0  0  0  0
    4.5000   -2.1500    0.0000 H   0  0  0  0  0  0  0  0  0  0  0  0
  1 13  1  0  0  0  0
  1 17  1  0  0  0  0
  2 15  1  0  0  0  0
  2 19  1  0  0  0  0
  3 16  1  0  0  0  0
  3 27  1  0  0  0  0
  4 22  1  0  0  0  0
  4 28  1  0  0  0  0
  5 23  1  0  0  0  0
  5 60  1  0  0  0  0
  6 29  1  0  0  0  0
  6 30  1  0  0  0  0
  7 27  2  0  0  0  0
  8 28  2  0  0  0  0
  9 32  1  0  0  0  0
  9 70  1  0  0  0  0
 10 35  1  0  0  0  0
 10 37  1  0  0  0  0
 11 39  1  0  0  0  0
 11 78  1  0  0  0  0
 12 13  1  0  0  0  0
 12 14  1  0  0  0  0
 12 16  1  0  0  0  0
 12 20  1  0  0  0  0
 13 15  1  0  0  0  0
 13 17  1  0  0  0  0
 14 19  1  0  0  0  0
 14 21  1  0  0  0  0
 14 22  1  0  0  0  0
 15 18  1  0  0  0  0
 15 41  1  0  0  0  0
 16 18  1  0  0  0  0
 16 42  1  0  0  0  0
 17 43  1  0  0  0  0
 17 44  1  0  0  0  0
 18 45  1  0  0  0  0
 18 46  1  0  0  0  0
 19 24  1  0  0  0  0
 19 47  1  0  0  0  0
 20 48  1  0  0  0  0
 20 49  1  0  0  0  0
 20 50  1  0  0  0  0
 21 23  1  0  0  0  0
 21 51  1  0  0  0  0
 21 52  1  0  0  0  0
 22 53  1  0  0  0  0
 22 54  1  0  0  0  0
 23 25  1  0  0  0  0
 23 55  1  0  0  0  0
 24 25  2  0  0  0  0
 24 56  1  0  0  0  0
 25 26  1  0  0  0  0
 26 57  1  0  0  0  0
 26 58  1  0  0  0  0
 26 59  1  0  0  0  0
 27 31  1  0  0  0  0
 28 29  1  0  0  0  0
 29 30  1  0  0  0  0
 29 61  1  0  0  0  0
 30 32  1  0  0  0  0
 30 33  1  0  0  0  0
 31 34  2  0  0  0  0
 31 62  1  0  0  0  0
 32 35  1  0  0  0  0
 32 63  1  0  0  0  0
 33 64  1  0  0  0  0
 33 65  1  0  0  0  0
 33 66  1  0  0  0  0
 34 36  1  0  0  0  0
 34 67  1  0  0  0  0
 35 68  1  0  0  0  0
 35 69  1  0  0  0  0
 36 38  2  0  0  0  0
 36 71  1  0  0  0  0
 37 38  1  0  0  0  0
 37 39  1  0  0  0  0
 37 72  1  0  0  0  0
 38 73  1  0  0  0  0
 39 40  1  0  0  0  0
 39 74  1  0  0  0  0
 40 75  1  0  0  0  0
 40 76  1  0  0  0  0
 40 77  1  0  0  0  0
M  END
> <PUBCHEM_COMPOUND_CID>
5476869

> <PUBCHEM_COMPOUND_CANONICALIZED>
1

> <PUBCHEM_CACTVS_COMPLEXITY>
1160

> <PUBCHEM_CACTVS_HBOND_ACCEPTOR>
11

> <PUBCHEM_CACTVS_HBOND_DONOR>
3

> <PUBCHEM_CACTVS_ROTATABLE_BOND>
1

> <PUBCHEM_CACTVS_SUBSKEYS>
AAADcfB4PAAAAAAAAAAAAAAAEiQAAYAAAAAkQAAAAAAAAACAAAAAGgAACAAADlSggAICCAAABgCIAiDSCAIAAAAgAAAICAFAAEgJFBYAIQQCUAAF4AALsYPK5PwPgAAAAAAAAAAAAAAAAAAAAIQADCAAAA==

> <PUBCHEM_IUPAC_OPENEYE_NAME>
(19E,21E)-6,15-dihydroxy-18-(1-hydroxyethyl)-5,14,26-trimethyl-spiro[2,10,13,17,24-pentaoxapentacyclo[23.2.1.03,8.08,26.012,14]octacosa-4,19,21-triene-27,2'-oxirane]-11,23-dione

> <PUBCHEM_IUPAC_CAS_NAME>
(19E,21E)-6,15-dihydroxy-18-(1-hydroxyethyl)-5,14,26-trimethylspiro[2,10,13,17,24-pentaoxapentacyclo[23.2.1.03,8.08,26.012,14]octacosa-4,19,21-triene-27,2'-oxirane]-11,23-dione

> <PUBCHEM_IUPAC_NAME_MARKUP>
(19<I>E</I>,21<I>E</I>)-6,15-dihydroxy-18-(1-hydroxyethyl)-5,14,26-trimethylspiro[2,10,13,17,24-pentaoxapentacyclo[23.2.1.0<SUP>3,8</SUP>.0<SUP>8,26</SUP>.0<SUP>12,14</SUP>]octacosa-4,19,21-triene-27,2&apos;-oxirane]-11,23-dione

> <PUBCHEM_IUPAC_NAME>
(19E,21E)-6,15-dihydroxy-18-(1-hydroxyethyl)-5,14,26-trimethylspiro[2,10,13,17,24-pentaoxapentacyclo[23.2.1.03,8.08,26.012,14]octacosa-4,19,21-triene-27,2'-oxirane]-11,23-dione

> <PUBCHEM_IUPAC_SYSTEMATIC_NAME>
(19E,21E)-18-(1-hydroxyethyl)-5,14,26-trimethyl-6,15-bis(oxidanyl)spiro[2,10,13,17,24-pentaoxapentacyclo[23.2.1.03,8.08,26.012,14]octacosa-4,19,21-triene-27,2'-oxirane]-11,23-dione

> <PUBCHEM_IUPAC_TRADITIONAL_NAME>
(19E,21E)-6,15-dihydroxy-18-(1-hydroxyethyl)-5,14,26-trimethyl-spiro[2,10,13,17,24-pentaoxapentacyclo[23.2.1.03,8.08,26.012,14]octacosa-4,19,21-triene-27,2'-oxirane]-11,23-quinone

> <PUBCHEM_IUPAC_INCHI>
InChI=1S/C29H38O11/c1-15-9-21-28(11-17(15)31)13-36-25(34)24-26(3,40-24)19(32)12-35-18(16(2)30)7-5-6-8-23(33)39-20-10-22(38-21)29(14-37-29)27(20,28)4/h5-9,16-22,24,30-32H,10-14H2,1-4H3/b7-5+,8-6+

> <PUBCHEM_IUPAC_INCHIKEY>
ZGOCMMMDEQOCDU-KQQUZDAGSA-N

> <PUBCHEM_XLOGP3_AA>
-0.1

> <PUBCHEM_EXACT_MASS>
562.24141202

> <PUBCHEM_MOLECULAR_FORMULA>
C29H38O11

> <PUBCHEM_MOLECULAR_WEIGHT>
562.6

> <PUBCHEM_OPENEYE_CAN_SMILES>
CC1=CC2C3(CC1O)COC(=O)C4C(O4)(C(COC(C=CC=CC(=O)OC5C3(C6(CO6)C(C5)O2)C)C(C)O)O)C

> <PUBCHEM_OPENEYE_ISO_SMILES>
CC1=CC2C3(CC1O)COC(=O)C4C(O4)(C(COC(/C=C/C=C/C(=O)OC5C3(C6(CO6)C(C5)O2)C)C(C)O)O)C

> <PUBCHEM_CACTVS_TPSA>
157

> <PUBCHEM_MONOISOTOPIC_WEIGHT>
562.24141202

> <PUBCHEM_TOTAL_CHARGE>
0

> <PUBCHEM_HEAVY_ATOM_COUNT>
40

> <PUBCHEM_ATOM_DEF_STEREO_COUNT>
0

> <PUBCHEM_ATOM_UDEF_STEREO_COUNT>
12

> <PUBCHEM_BOND_DEF_STEREO_COUNT>
2

> <PUBCHEM_BOND_UDEF_STEREO_COUNT>
0

> <PUBCHEM_ISOTOPIC_ATOM_COUNT>
0

> <PUBCHEM_COMPONENT_COUNT>
1

> <PUBCHEM_CACTVS_TAUTO_COUNT>
-1

> <PUBCHEM_COORDINATE_TYPE>
1
5
255

> <PUBCHEM_BONDANNOTATIONS>
39  11  3
12  20  3
13  17  3
14  21  3
15  18  3
16  18  3
19  24  3
29  28  3
30  33  3
37  38  3
23  5  3
32  9  3

$$$$
