185460
  -OEChem-02142402222D

 71 74  0     0  0  0  0  0  0999 V2000
    4.6318    1.8106    0.0000 O   0  0  0  0  0  0  0  0  0  0  0  0
   15.2619   -3.3715    0.0000 O   0  0  0  0  0  0  0  0  0  0  0  0
   15.2619   -1.6394    0.0000 O   0  0  0  0  0  0  0  0  0  0  0  0
    8.2619   -1.6394    0.0000 N   0  0  0  0  0  0  0  0  0  0  0  0
    4.6783   -0.8347    0.0000 N   0  0  0  0  0  0  0  0  0  0  0  0
    4.6783   -2.4442    0.0000 N   0  0  0  0  0  0  0  0  0  0  0  0
    6.2619   -1.6394    0.0000 C   0  0  0  0  0  0  0  0  0  0  0  0
    6.7619   -0.7734    0.0000 C   0  0  0  0  0  0  0  0  0  0  0  0
    6.7619   -2.5055    0.0000 C   0  0  0  0  0  0  0  0  0  0  0  0
    7.7619   -0.7734    0.0000 C   0  0  0  0  0  0  0  0  0  0  0  0
    7.7619   -2.5055    0.0000 C   0  0  0  0  0  0  0  0  0  0  0  0
    5.2619   -1.6394    0.0000 C   0  0  0  0  0  0  0  0  0  0  0  0
    9.2619   -1.6394    0.0000 C   0  0  0  0  0  0  0  0  0  0  0  0
    9.7619   -2.5055    0.0000 C   0  0  0  0  0  0  0  0  0  0  0  0
    3.7320   -1.1394    0.0000 C   0  0  0  0  0  0  0  0  0  0  0  0
    4.9889    0.1158    0.0000 C   0  0  0  0  0  0  0  0  0  0  0  0
    3.7320   -2.1394    0.0000 C   0  0  0  0  0  0  0  0  0  0  0  0
   10.7619   -2.5055    0.0000 C   0  0  0  0  0  0  0  0  0  0  0  0
    4.3211    0.8601    0.0000 C   0  0  0  0  0  0  0  0  0  0  0  0
    2.8660   -0.6394    0.0000 C   0  0  0  0  0  0  0  0  0  0  0  0
    2.8660   -2.6394    0.0000 C   0  0  0  0  0  0  0  0  0  0  0  0
   11.2619   -1.6394    0.0000 C   0  0  0  0  0  0  0  0  0  0  0  0
   11.2619   -3.3715    0.0000 C   0  0  0  0  0  0  0  0  0  0  0  0
   12.7619   -2.5055    0.0000 C   0  0  0  0  0  0  0  0  0  0  0  0
   13.7619   -2.5055    0.0000 C   0  0  0  0  0  0  0  0  0  0  0  0
    2.0000   -1.1394    0.0000 C   0  0  0  0  0  0  0  0  0  0  0  0
    2.0000   -2.1394    0.0000 C   0  0  0  0  0  0  0  0  0  0  0  0
   12.2619   -1.6394    0.0000 C   0  0  0  0  0  0  0  0  0  0  0  0
   12.2619   -3.3715    0.0000 C   0  0  0  0  0  0  0  0  0  0  0  0
   13.7619   -3.5055    0.0000 C   0  0  0  0  0  0  0  0  0  0  0  0
   13.7619   -1.5055    0.0000 C   0  0  0  0  0  0  0  0  0  0  0  0
   14.7619   -2.5055    0.0000 C   0  0  0  0  0  0  0  0  0  0  0  0
    3.9639    2.5549    0.0000 C   0  0  0  0  0  0  0  0  0  0  0  0
    4.2746    3.5055    0.0000 C   0  0  0  0  0  0  0  0  0  0  0  0
    5.9519   -2.1764    0.0000 H   0  0  0  0  0  0  0  0  0  0  0  0
    6.8695   -0.1628    0.0000 H   0  0  0  0  0  0  0  0  0  0  0  0
    6.1793   -0.5614    0.0000 H   0  0  0  0  0  0  0  0  0  0  0  0
    6.1793   -2.7175    0.0000 H   0  0  0  0  0  0  0  0  0  0  0  0
    6.8695   -3.1160    0.0000 H   0  0  0  0  0  0  0  0  0  0  0  0
    8.3445   -0.5614    0.0000 H   0  0  0  0  0  0  0  0  0  0  0  0
    7.6542   -0.1628    0.0000 H   0  0  0  0  0  0  0  0  0  0  0  0
    7.6542   -3.1160    0.0000 H   0  0  0  0  0  0  0  0  0  0  0  0
    8.3445   -2.7175    0.0000 H   0  0  0  0  0  0  0  0  0  0  0  0
    9.8445   -1.4274    0.0000 H   0  0  0  0  0  0  0  0  0  0  0  0
    9.1542   -1.0288    0.0000 H   0  0  0  0  0  0  0  0  0  0  0  0
    9.1793   -2.7175    0.0000 H   0  0  0  0  0  0  0  0  0  0  0  0
    9.8695   -3.1160    0.0000 H   0  0  0  0  0  0  0  0  0  0  0  0
    5.5359   -0.1762    0.0000 H   0  0  0  0  0  0  0  0  0  0  0  0
    5.3715    0.6037    0.0000 H   0  0  0  0  0  0  0  0  0  0  0  0
    3.7742    1.1521    0.0000 H   0  0  0  0  0  0  0  0  0  0  0  0
    3.9385    0.3722    0.0000 H   0  0  0  0  0  0  0  0  0  0  0  0
    2.8660   -0.0194    0.0000 H   0  0  0  0  0  0  0  0  0  0  0  0
    2.8660   -3.2594    0.0000 H   0  0  0  0  0  0  0  0  0  0  0  0
   10.9519   -1.1025    0.0000 H   0  0  0  0  0  0  0  0  0  0  0  0
   10.9519   -3.9084    0.0000 H   0  0  0  0  0  0  0  0  0  0  0  0
    1.4631   -0.8294    0.0000 H   0  0  0  0  0  0  0  0  0  0  0  0
    1.4631   -2.4494    0.0000 H   0  0  0  0  0  0  0  0  0  0  0  0
   12.5719   -1.1025    0.0000 H   0  0  0  0  0  0  0  0  0  0  0  0
   12.5719   -3.9084    0.0000 H   0  0  0  0  0  0  0  0  0  0  0  0
   13.1419   -3.5055    0.0000 H   0  0  0  0  0  0  0  0  0  0  0  0
   13.7619   -4.1255    0.0000 H   0  0  0  0  0  0  0  0  0  0  0  0
   14.3819   -3.5055    0.0000 H   0  0  0  0  0  0  0  0  0  0  0  0
   14.3819   -1.5055    0.0000 H   0  0  0  0  0  0  0  0  0  0  0  0
   13.7619   -0.8855    0.0000 H   0  0  0  0  0  0  0  0  0  0  0  0
   13.1419   -1.5055    0.0000 H   0  0  0  0  0  0  0  0  0  0  0  0
    3.4170    2.8470    0.0000 H   0  0  0  0  0  0  0  0  0  0  0  0
    3.5814    2.0670    0.0000 H   0  0  0  0  0  0  0  0  0  0  0  0
    4.8639    3.3128    0.0000 H   0  0  0  0  0  0  0  0  0  0  0  0
    4.4672    4.0948    0.0000 H   0  0  0  0  0  0  0  0  0  0  0  0
    3.6852    3.6981    0.0000 H   0  0  0  0  0  0  0  0  0  0  0  0
   15.8819   -3.3715    0.0000 H   0  0  0  0  0  0  0  0  0  0  0  0
  1 19  1  0  0  0  0
  1 33  1  0  0  0  0
  2 32  1  0  0  0  0
  2 71  1  0  0  0  0
  3 32  2  0  0  0  0
  4 10  1  0  0  0  0
  4 11  1  0  0  0  0
  4 13  1  0  0  0  0
  5 12  1  0  0  0  0
  5 15  1  0  0  0  0
  5 16  1  0  0  0  0
  6 12  2  0  0  0  0
  6 17  1  0  0  0  0
  7  8  1  0  0  0  0
  7  9  1  0  0  0  0
  7 12  1  0  0  0  0
  7 35  1  0  0  0  0
  8 10  1  0  0  0  0
  8 36  1  0  0  0  0
  8 37  1  0  0  0  0
  9 11  1  0  0  0  0
  9 38  1  0  0  0  0
  9 39  1  0  0  0  0
 10 40  1  0  0  0  0
 10 41  1  0  0  0  0
 11 42  1  0  0  0  0
 11 43  1  0  0  0  0
 13 14  1  0  0  0  0
 13 44  1  0  0  0  0
 13 45  1  0  0  0  0
 14 18  1  0  0  0  0
 14 46  1  0  0  0  0
 14 47  1  0  0  0  0
 15 17  1  0  0  0  0
 15 20  2  0  0  0  0
 16 19  1  0  0  0  0
 16 48  1  0  0  0  0
 16 49  1  0  0  0  0
 17 21  2  0  0  0  0
 18 22  2  0  0  0  0
 18 23  1  0  0  0  0
 19 50  1  0  0  0  0
 19 51  1  0  0  0  0
 20 26  1  0  0  0  0
 20 52  1  0  0  0  0
 21 27  1  0  0  0  0
 21 53  1  0  0  0  0
 22 28  1  0  0  0  0
 22 54  1  0  0  0  0
 23 29  2  0  0  0  0
 23 55  1  0  0  0  0
 24 25  1  0  0  0  0
 24 28  2  0  0  0  0
 24 29  1  0  0  0  0
 25 30  1  0  0  0  0
 25 31  1  0  0  0  0
 25 32  1  0  0  0  0
 26 27  2  0  0  0  0
 26 56  1  0  0  0  0
 27 57  1  0  0  0  0
 28 58  1  0  0  0  0
 29 59  1  0  0  0  0
 30 60  1  0  0  0  0
 30 61  1  0  0  0  0
 30 62  1  0  0  0  0
 31 63  1  0  0  0  0
 31 64  1  0  0  0  0
 31 65  1  0  0  0  0
 33 34  1  0  0  0  0
 33 66  1  0  0  0  0
 33 67  1  0  0  0  0
 34 68  1  0  0  0  0
 34 69  1  0  0  0  0
 34 70  1  0  0  0  0
M  END
> <PUBCHEM_COMPOUND_CID>
185460

> <PUBCHEM_COMPOUND_CANONICALIZED>
1

> <PUBCHEM_CACTVS_COMPLEXITY>
641

> <PUBCHEM_CACTVS_HBOND_ACCEPTOR>
5

> <PUBCHEM_CACTVS_HBOND_DONOR>
1

> <PUBCHEM_CACTVS_ROTATABLE_BOND>
10

> <PUBCHEM_CACTVS_SUBSKEYS>
AAADcfB7MAAAAAAAAAAAAAAAAAAAAWAAAAA8YIAAAAAAAFgB9AAAHgAACAAADwjhnwYz2LcMFgCoAybybACCgC0hEqAJ2CE4dJiKaLLAnZGXYAhswAPYyCeYyOCPwAAAAAAAACCAAAAAAAAAQAAAAAAAAA==

> <PUBCHEM_IUPAC_OPENEYE_NAME>
2-[4-[2-[4-[1-(2-ethoxyethyl)benzimidazol-2-yl]-1-piperidyl]ethyl]phenyl]-2-methyl-propanoic acid

> <PUBCHEM_IUPAC_CAS_NAME>
2-[4-[2-[4-[1-(2-ethoxyethyl)-2-benzimidazolyl]-1-piperidinyl]ethyl]phenyl]-2-methylpropanoic acid

> <PUBCHEM_IUPAC_NAME_MARKUP>
2-[4-[2-[4-[1-(2-ethoxyethyl)benzimidazol-2-yl]piperidin-1-yl]ethyl]phenyl]-2-methylpropanoic acid

> <PUBCHEM_IUPAC_NAME>
2-[4-[2-[4-[1-(2-ethoxyethyl)benzimidazol-2-yl]piperidin-1-yl]ethyl]phenyl]-2-methylpropanoic acid

> <PUBCHEM_IUPAC_SYSTEMATIC_NAME>
2-[4-[2-[4-[1-(2-ethoxyethyl)benzimidazol-2-yl]piperidin-1-yl]ethyl]phenyl]-2-methyl-propanoic acid

> <PUBCHEM_IUPAC_TRADITIONAL_NAME>
2-[4-[2-[4-[1-(2-ethoxyethyl)benzimidazol-2-yl]piperidino]ethyl]phenyl]-2-methyl-propionic acid

> <PUBCHEM_IUPAC_INCHI>
InChI=1S/C28H37N3O3/c1-4-34-20-19-31-25-8-6-5-7-24(25)29-26(31)22-14-17-30(18-15-22)16-13-21-9-11-23(12-10-21)28(2,3)27(32)33/h5-12,22H,4,13-20H2,1-3H3,(H,32,33)

> <PUBCHEM_IUPAC_INCHIKEY>
ACCMWZWAEFYUGZ-UHFFFAOYSA-N

> <PUBCHEM_XLOGP3_AA>
2.3

> <PUBCHEM_EXACT_MASS>
463.28349205

> <PUBCHEM_MOLECULAR_FORMULA>
C28H37N3O3

> <PUBCHEM_MOLECULAR_WEIGHT>
463.6

> <PUBCHEM_OPENEYE_CAN_SMILES>
CCOCCN1C2=CC=CC=C2N=C1C3CCN(CC3)CCC4=CC=C(C=C4)C(C)(C)C(=O)O

> <PUBCHEM_OPENEYE_ISO_SMILES>
CCOCCN1C2=CC=CC=C2N=C1C3CCN(CC3)CCC4=CC=C(C=C4)C(C)(C)C(=O)O

> <PUBCHEM_CACTVS_TPSA>
67.6

> <PUBCHEM_MONOISOTOPIC_WEIGHT>
463.28349205

> <PUBCHEM_TOTAL_CHARGE>
0

> <PUBCHEM_HEAVY_ATOM_COUNT>
34

> <PUBCHEM_ATOM_DEF_STEREO_COUNT>
0

> <PUBCHEM_ATOM_UDEF_STEREO_COUNT>
0

> <PUBCHEM_BOND_DEF_STEREO_COUNT>
0

> <PUBCHEM_BOND_UDEF_STEREO_COUNT>
0

> <PUBCHEM_ISOTOPIC_ATOM_COUNT>
0

> <PUBCHEM_COMPONENT_COUNT>
1

> <PUBCHEM_CACTVS_TAUTO_COUNT>
-1

> <PUBCHEM_COORDINATE_TYPE>
1
5
255

> <PUBCHEM_BONDANNOTATIONS>
15  17  8
15  20  8
17  21  8
18  22  8
18  23  8
20  26  8
21  27  8
22  28  8
23  29  8
24  28  8
24  29  8
26  27  8
5  12  8
5  15  8
6  12  8
6  17  8

$$$$
