5282138
  -OEChem-02142402252D

 64 66  0     1  0  0  0  0  0999 V2000
   12.3923   -1.1900    0.0000 O   0  0  0  0  0  0  0  0  0  0  0  0
    7.1962   -1.1900    0.0000 O   0  0  0  0  0  0  0  0  0  0  0  0
   11.5263    0.3100    0.0000 O   0  0  0  0  0  0  0  0  0  0  0  0
    8.0622    0.3100    0.0000 O   0  0  0  0  0  0  0  0  0  0  0  0
   14.9904   -0.6900    0.0000 O   0  0  0  0  0  0  0  0  0  0  0  0
   11.5263    3.3100    0.0000 O   0  5  0  0  0  0  0  0  0  0  0  0
   12.3923    1.8100    0.0000 O   0  0  0  0  0  0  0  0  0  0  0  0
    9.7942   -2.6900    0.0000 N   0  0  0  0  0  0  0  0  0  0  0  0
   11.5263    2.3100    0.0000 N   0  3  0  0  0  0  0  0  0  0  0  0
    9.7942   -0.6900    0.0000 C   0  0  3  0  0  0  0  0  0  0  0  0
   10.6603   -1.1900    0.0000 C   0  0  0  0  0  0  0  0  0  0  0  0
    8.9282   -1.1900    0.0000 C   0  0  0  0  0  0  0  0  0  0  0  0
    9.7942    0.3100    0.0000 C   0  0  0  0  0  0  0  0  0  0  0  0
   10.6603   -2.1900    0.0000 C   0  0  0  0  0  0  0  0  0  0  0  0
    8.9282   -2.1900    0.0000 C   0  0  0  0  0  0  0  0  0  0  0  0
   10.6603    0.8100    0.0000 C   0  0  0  0  0  0  0  0  0  0  0  0
   11.5263   -0.6900    0.0000 C   0  0  0  0  0  0  0  0  0  0  0  0
    8.9282    0.8100    0.0000 C   0  0  0  0  0  0  0  0  0  0  0  0
    8.0622   -0.6900    0.0000 C   0  0  0  0  0  0  0  0  0  0  0  0
   11.5263   -2.6900    0.0000 C   0  0  0  0  0  0  0  0  0  0  0  0
    8.0622   -2.6900    0.0000 C   0  0  0  0  0  0  0  0  0  0  0  0
   10.6603    1.8100    0.0000 C   0  0  0  0  0  0  0  0  0  0  0  0
    8.9282    1.8100    0.0000 C   0  0  0  0  0  0  0  0  0  0  0  0
    9.7942    2.3100    0.0000 C   0  0  0  0  0  0  0  0  0  0  0  0
   13.2583   -0.6900    0.0000 C   0  0  0  0  0  0  0  0  0  0  0  0
    6.3301   -0.6900    0.0000 C   0  0  0  0  0  0  0  0  0  0  0  0
   14.1244   -1.1900    0.0000 C   0  0  0  0  0  0  0  0  0  0  0  0
    5.4641   -1.1900    0.0000 C   0  0  0  0  0  0  0  0  0  0  0  0
    4.5981   -0.6900    0.0000 C   0  0  0  0  0  0  0  0  0  0  0  0
    3.7320   -1.1900    0.0000 C   0  0  0  0  0  0  0  0  0  0  0  0
   15.8564   -1.1900    0.0000 C   0  0  0  0  0  0  0  0  0  0  0  0
    3.7320   -2.1900    0.0000 C   0  0  0  0  0  0  0  0  0  0  0  0
    2.8660   -0.6900    0.0000 C   0  0  0  0  0  0  0  0  0  0  0  0
    2.8660   -2.6900    0.0000 C   0  0  0  0  0  0  0  0  0  0  0  0
    2.0000   -1.1900    0.0000 C   0  0  0  0  0  0  0  0  0  0  0  0
    2.0000   -2.1900    0.0000 C   0  0  0  0  0  0  0  0  0  0  0  0
    9.2573   -0.3800    0.0000 H   0  0  0  0  0  0  0  0  0  0  0  0
    9.7942   -3.3100    0.0000 H   0  0  0  0  0  0  0  0  0  0  0  0
   11.1972    0.5000    0.0000 H   0  0  0  0  0  0  0  0  0  0  0  0
    8.3913    0.5000    0.0000 H   0  0  0  0  0  0  0  0  0  0  0  0
   11.2163   -3.2269    0.0000 H   0  0  0  0  0  0  0  0  0  0  0  0
   12.0632   -3.0000    0.0000 H   0  0  0  0  0  0  0  0  0  0  0  0
   11.8363   -2.1531    0.0000 H   0  0  0  0  0  0  0  0  0  0  0  0
    7.7522   -2.1531    0.0000 H   0  0  0  0  0  0  0  0  0  0  0  0
    7.5252   -3.0000    0.0000 H   0  0  0  0  0  0  0  0  0  0  0  0
    8.3722   -3.2269    0.0000 H   0  0  0  0  0  0  0  0  0  0  0  0
    8.3913    2.1200    0.0000 H   0  0  0  0  0  0  0  0  0  0  0  0
    9.7942    2.9300    0.0000 H   0  0  0  0  0  0  0  0  0  0  0  0
   13.6569   -0.2151    0.0000 H   0  0  0  0  0  0  0  0  0  0  0  0
   12.8598   -0.2151    0.0000 H   0  0  0  0  0  0  0  0  0  0  0  0
    6.7287   -0.2151    0.0000 H   0  0  0  0  0  0  0  0  0  0  0  0
    5.9316   -0.2151    0.0000 H   0  0  0  0  0  0  0  0  0  0  0  0
   13.7258   -1.6650    0.0000 H   0  0  0  0  0  0  0  0  0  0  0  0
   14.5229   -1.6650    0.0000 H   0  0  0  0  0  0  0  0  0  0  0  0
    5.4641   -1.8100    0.0000 H   0  0  0  0  0  0  0  0  0  0  0  0
    4.5981   -0.0700    0.0000 H   0  0  0  0  0  0  0  0  0  0  0  0
   15.5464   -1.7269    0.0000 H   0  0  0  0  0  0  0  0  0  0  0  0
   16.3933   -1.5000    0.0000 H   0  0  0  0  0  0  0  0  0  0  0  0
   16.1664   -0.6531    0.0000 H   0  0  0  0  0  0  0  0  0  0  0  0
    4.2690   -2.5000    0.0000 H   0  0  0  0  0  0  0  0  0  0  0  0
    2.8660   -0.0700    0.0000 H   0  0  0  0  0  0  0  0  0  0  0  0
    2.8660   -3.3100    0.0000 H   0  0  0  0  0  0  0  0  0  0  0  0
    1.4631   -0.8800    0.0000 H   0  0  0  0  0  0  0  0  0  0  0  0
    1.4631   -2.5000    0.0000 H   0  0  0  0  0  0  0  0  0  0  0  0
  1 17  1  0  0  0  0
  1 25  1  0  0  0  0
  2 19  1  0  0  0  0
  2 26  1  0  0  0  0
  3 17  2  0  0  0  0
  4 19  2  0  0  0  0
  5 27  1  0  0  0  0
  5 31  1  0  0  0  0
  6  9  1  0  0  0  0
  7  9  2  0  0  0  0
  8 14  1  0  0  0  0
  8 15  1  0  0  0  0
  8 38  1  0  0  0  0
  9 22  1  0  0  0  0
 10 11  1  0  0  0  0
 10 12  1  0  0  0  0
 10 13  1  0  0  0  0
 10 37  1  0  0  0  0
 11 14  2  0  0  0  0
 11 17  1  0  0  0  0
 12 15  2  0  0  0  0
 12 19  1  0  0  0  0
 13 16  2  0  0  0  0
 13 18  1  0  0  0  0
 14 20  1  0  0  0  0
 15 21  1  0  0  0  0
 16 22  1  0  0  0  0
 16 39  1  0  0  0  0
 18 23  2  0  0  0  0
 18 40  1  0  0  0  0
 20 41  1  0  0  0  0
 20 42  1  0  0  0  0
 20 43  1  0  0  0  0
 21 44  1  0  0  0  0
 21 45  1  0  0  0  0
 21 46  1  0  0  0  0
 22 24  2  0  0  0  0
 23 24  1  0  0  0  0
 23 47  1  0  0  0  0
 24 48  1  0  0  0  0
 25 27  1  0  0  0  0
 25 49  1  0  0  0  0
 25 50  1  0  0  0  0
 26 28  1  0  0  0  0
 26 51  1  0  0  0  0
 26 52  1  0  0  0  0
 27 53  1  0  0  0  0
 27 54  1  0  0  0  0
 28 29  2  0  0  0  0
 28 55  1  0  0  0  0
 29 30  1  0  0  0  0
 29 56  1  0  0  0  0
 30 32  2  0  0  0  0
 30 33  1  0  0  0  0
 31 57  1  0  0  0  0
 31 58  1  0  0  0  0
 31 59  1  0  0  0  0
 32 34  1  0  0  0  0
 32 60  1  0  0  0  0
 33 35  2  0  0  0  0
 33 61  1  0  0  0  0
 34 36  2  0  0  0  0
 34 62  1  0  0  0  0
 35 36  1  0  0  0  0
 35 63  1  0  0  0  0
 36 64  1  0  0  0  0
M  CHG  2   6  -1   9   1
M  END
> <PUBCHEM_COMPOUND_CID>
5282138

> <PUBCHEM_COMPOUND_CANONICALIZED>
1

> <PUBCHEM_CACTVS_COMPLEXITY>
896

> <PUBCHEM_CACTVS_HBOND_ACCEPTOR>
8

> <PUBCHEM_CACTVS_HBOND_DONOR>
1

> <PUBCHEM_CACTVS_ROTATABLE_BOND>
11

> <PUBCHEM_CACTVS_SUBSKEYS>
AAADceB7OAAAAAAAAAAAAAAAAAAAAAAAAAAwYIAAAAAAAAABQAAAHgAUAAAADQihmAIyyILQRACJAiTSSwCCAAAgAgAoiAEAZMoJJDKAsZGCMABkkACK6UeY7uiOgAAAQAAAAAAAAACAAAAAAAAAAAAAAA==

> <PUBCHEM_IUPAC_OPENEYE_NAME>
O5-[(E)-cinnamyl] O3-(2-methoxyethyl) 2,6-dimethyl-4-(3-nitrophenyl)-1,4-dihydropyridine-3,5-dicarboxylate

> <PUBCHEM_IUPAC_CAS_NAME>
2,6-dimethyl-4-(3-nitrophenyl)-1,4-dihydropyridine-3,5-dicarboxylic acid O3-(2-methoxyethyl) ester O5-[(E)-3-phenylprop-2-enyl] ester

> <PUBCHEM_IUPAC_NAME_MARKUP>
3-<I>O</I>-(2-methoxyethyl) 5-<I>O</I>-[(<I>E</I>)-3-phenylprop-2-enyl] 2,6-dimethyl-4-(3-nitrophenyl)-1,4-dihydropyridine-3,5-dicarboxylate

> <PUBCHEM_IUPAC_NAME>
3-O-(2-methoxyethyl) 5-O-[(E)-3-phenylprop-2-enyl] 2,6-dimethyl-4-(3-nitrophenyl)-1,4-dihydropyridine-3,5-dicarboxylate

> <PUBCHEM_IUPAC_SYSTEMATIC_NAME>
O3-(2-methoxyethyl) O5-[(E)-3-phenylprop-2-enyl] 2,6-dimethyl-4-(3-nitrophenyl)-1,4-dihydropyridine-3,5-dicarboxylate

> <PUBCHEM_IUPAC_TRADITIONAL_NAME>
2,6-dimethyl-4-(3-nitrophenyl)-1,4-dihydropyridine-3,5-dicarboxylic acid O5-[(E)-cinnamyl] ester O3-(2-methoxyethyl) ester

> <PUBCHEM_IUPAC_INCHI>
InChI=1S/C27H28N2O7/c1-18-23(26(30)35-14-8-11-20-9-5-4-6-10-20)25(21-12-7-13-22(17-21)29(32)33)24(19(2)28-18)27(31)36-16-15-34-3/h4-13,17,25,28H,14-16H2,1-3H3/b11-8+

> <PUBCHEM_IUPAC_INCHIKEY>
KJEBULYHNRNJTE-DHZHZOJOSA-N

> <PUBCHEM_XLOGP3>
4.4

> <PUBCHEM_EXACT_MASS>
492.18965124

> <PUBCHEM_MOLECULAR_FORMULA>
C27H28N2O7

> <PUBCHEM_MOLECULAR_WEIGHT>
492.5

> <PUBCHEM_OPENEYE_CAN_SMILES>
CC1=C(C(C(=C(N1)C)C(=O)OCC=CC2=CC=CC=C2)C3=CC(=CC=C3)[N+](=O)[O-])C(=O)OCCOC

> <PUBCHEM_OPENEYE_ISO_SMILES>
CC1=C(C(C(=C(N1)C)C(=O)OC/C=C/C2=CC=CC=C2)C3=CC(=CC=C3)[N+](=O)[O-])C(=O)OCCOC

> <PUBCHEM_CACTVS_TPSA>
120

> <PUBCHEM_MONOISOTOPIC_WEIGHT>
492.18965124

> <PUBCHEM_TOTAL_CHARGE>
0

> <PUBCHEM_HEAVY_ATOM_COUNT>
36

> <PUBCHEM_ATOM_DEF_STEREO_COUNT>
0

> <PUBCHEM_ATOM_UDEF_STEREO_COUNT>
1

> <PUBCHEM_BOND_DEF_STEREO_COUNT>
1

> <PUBCHEM_BOND_UDEF_STEREO_COUNT>
0

> <PUBCHEM_ISOTOPIC_ATOM_COUNT>
0

> <PUBCHEM_COMPONENT_COUNT>
1

> <PUBCHEM_CACTVS_TAUTO_COUNT>
-1

> <PUBCHEM_COORDINATE_TYPE>
1
5
255

> <PUBCHEM_BONDANNOTATIONS>
10  13  3
13  16  8
13  18  8
16  22  8
18  23  8
22  24  8
23  24  8
30  32  8
30  33  8
32  34  8
33  35  8
34  36  8
35  36  8

$$$$
