2784
  -OEChem-02142402102D

 52 55  0     1  0  0  0  0  0999 V2000
    5.3461   -0.1622    0.0000 O   0  0  0  0  0  0  0  0  0  0  0  0
    3.6730    0.2861    0.0000 O   0  0  0  0  0  0  0  0  0  0  0  0
    5.8637    1.2520    0.0000 O   0  0  0  0  0  0  0  0  0  0  0  0
    5.1990   -3.4427    0.0000 N   0  3  0  0  0  0  0  0  0  0  0  0
    5.4578   -2.4768    0.0000 C   0  0  0  0  0  0  0  0  0  0  0  0
    4.2212   -1.6281    0.0000 C   0  0  0  0  0  0  0  0  0  0  0  0
    5.0872   -1.1281    0.0000 C   0  0  3  0  0  0  0  0  0  0  0  0
    3.8263   -4.0347    0.0000 C   0  0  0  0  0  0  0  0  0  0  0  0
    6.5980   -3.9515    0.0000 C   0  0  0  0  0  0  0  0  0  0  0  0
    3.4843   -3.0950    0.0000 C   0  0  0  0  0  0  0  0  0  0  0  0
    6.8568   -2.9856    0.0000 C   0  0  0  0  0  0  0  0  0  0  0  0
    4.9402   -4.4086    0.0000 C   0  0  0  0  0  0  0  0  0  0  0  0
    4.6390    0.5449    0.0000 C   0  0  0  0  0  0  0  0  0  0  0  0
    4.8978    1.5108    0.0000 C   0  0  0  0  0  0  0  0  0  0  0  0
    5.1566    2.4768    0.0000 C   0  0  0  0  0  0  0  0  0  0  0  0
    3.9318    1.7697    0.0000 C   0  0  0  0  0  0  0  0  0  0  0  0
    4.4495    3.1839    0.0000 C   0  0  0  0  0  0  0  0  0  0  0  0
    3.2247    1.0626    0.0000 C   0  0  0  0  0  0  0  0  0  0  0  0
    6.1225    2.7356    0.0000 C   0  0  0  0  0  0  0  0  0  0  0  0
    3.6730    2.7356    0.0000 C   0  0  0  0  0  0  0  0  0  0  0  0
    4.7083    4.1498    0.0000 C   0  0  0  0  0  0  0  0  0  0  0  0
    2.2588    1.3214    0.0000 C   0  0  0  0  0  0  0  0  0  0  0  0
    6.3813    3.7015    0.0000 C   0  0  0  0  0  0  0  0  0  0  0  0
    2.7071    2.9944    0.0000 C   0  0  0  0  0  0  0  0  0  0  0  0
    5.6742    4.4086    0.0000 C   0  0  0  0  0  0  0  0  0  0  0  0
    2.0000    2.2873    0.0000 C   0  0  0  0  0  0  0  0  0  0  0  0
    5.4438   -3.0966    0.0000 H   0  0  0  0  0  0  0  0  0  0  0  0
    3.9165   -1.0882    0.0000 H   0  0  0  0  0  0  0  0  0  0  0  0
    3.6783   -1.9276    0.0000 H   0  0  0  0  0  0  0  0  0  0  0  0
    5.7072   -1.1262    0.0000 H   0  0  0  0  0  0  0  0  0  0  0  0
    3.2479   -4.2580    0.0000 H   0  0  0  0  0  0  0  0  0  0  0  0
    4.0608   -4.6087    0.0000 H   0  0  0  0  0  0  0  0  0  0  0  0
    6.4030   -4.5401    0.0000 H   0  0  0  0  0  0  0  0  0  0  0  0
    7.1919   -4.1293    0.0000 H   0  0  0  0  0  0  0  0  0  0  0  0
    3.2900   -2.5062    0.0000 H   0  0  0  0  0  0  0  0  0  0  0  0
    2.8985   -3.2982    0.0000 H   0  0  0  0  0  0  0  0  0  0  0  0
    7.4507   -3.1634    0.0000 H   0  0  0  0  0  0  0  0  0  0  0  0
    7.0517   -2.3970    0.0000 H   0  0  0  0  0  0  0  0  0  0  0  0
    4.3413   -4.2482    0.0000 H   0  0  0  0  0  0  0  0  0  0  0  0
    4.7797   -5.0075    0.0000 H   0  0  0  0  0  0  0  0  0  0  0  0
    5.5391   -4.5691    0.0000 H   0  0  0  0  0  0  0  0  0  0  0  0
    6.3021    1.6904    0.0000 H   0  0  0  0  0  0  0  0  0  0  0  0
    3.8506    3.0234    0.0000 H   0  0  0  0  0  0  0  0  0  0  0  0
    3.3852    0.4637    0.0000 H   0  0  0  0  0  0  0  0  0  0  0  0
    6.5609    2.2972    0.0000 H   0  0  0  0  0  0  0  0  0  0  0  0
    4.1114    3.1740    0.0000 H   0  0  0  0  0  0  0  0  0  0  0  0
    4.2699    4.5882    0.0000 H   0  0  0  0  0  0  0  0  0  0  0  0
    1.8204    0.8830    0.0000 H   0  0  0  0  0  0  0  0  0  0  0  0
    6.9802    3.8620    0.0000 H   0  0  0  0  0  0  0  0  0  0  0  0
    2.5466    3.5933    0.0000 H   0  0  0  0  0  0  0  0  0  0  0  0
    5.8347    5.0075    0.0000 H   0  0  0  0  0  0  0  0  0  0  0  0
    1.4011    2.4478    0.0000 H   0  0  0  0  0  0  0  0  0  0  0  0
  1  7  1  0  0  0  0
  1 13  1  0  0  0  0
  2 13  2  0  0  0  0
  3 14  1  0  0  0  0
  3 42  1  0  0  0  0
  4  6  1  0  0  0  0
  4  8  1  0  0  0  0
  4  9  1  0  0  0  0
  4 12  1  0  0  0  0
  5  7  1  0  0  0  0
  5 10  1  0  0  0  0
  5 11  1  0  0  0  0
  5 27  1  0  0  0  0
  6  7  1  0  0  0  0
  6 28  1  0  0  0  0
  6 29  1  0  0  0  0
  7 30  1  0  0  0  0
  8 10  1  0  0  0  0
  8 31  1  0  0  0  0
  8 32  1  0  0  0  0
  9 11  1  0  0  0  0
  9 33  1  0  0  0  0
  9 34  1  0  0  0  0
 10 35  1  0  0  0  0
 10 36  1  0  0  0  0
 11 37  1  0  0  0  0
 11 38  1  0  0  0  0
 12 39  1  0  0  0  0
 12 40  1  0  0  0  0
 12 41  1  0  0  0  0
 13 14  1  0  0  0  0
 14 15  1  0  0  0  0
 14 16  1  0  0  0  0
 15 17  2  0  0  0  0
 15 19  1  0  0  0  0
 16 18  2  0  0  0  0
 16 20  1  0  0  0  0
 17 21  1  0  0  0  0
 17 43  1  0  0  0  0
 18 22  1  0  0  0  0
 18 44  1  0  0  0  0
 19 23  2  0  0  0  0
 19 45  1  0  0  0  0
 20 24  2  0  0  0  0
 20 46  1  0  0  0  0
 21 25  2  0  0  0  0
 21 47  1  0  0  0  0
 22 26  2  0  0  0  0
 22 48  1  0  0  0  0
 23 25  1  0  0  0  0
 23 49  1  0  0  0  0
 24 26  1  0  0  0  0
 24 50  1  0  0  0  0
 25 51  1  0  0  0  0
 26 52  1  0  0  0  0
M  CHG  1   4   1
M  END
> <PUBCHEM_COMPOUND_CID>
2784

> <PUBCHEM_COMPOUND_CANONICALIZED>
1

> <PUBCHEM_CACTVS_COMPLEXITY>
482

> <PUBCHEM_CACTVS_HBOND_ACCEPTOR>
3

> <PUBCHEM_CACTVS_HBOND_DONOR>
1

> <PUBCHEM_CACTVS_ROTATABLE_BOND>
5

> <PUBCHEM_CACTVS_SUBSKEYS>
AAADceB6MAAAAAAAAAAAAAAAAAAAAAAAAAA8eLECAAAAAAABQAAAHgAACAAADVThmAYyCIMABgCIAiDSCAICAAAgAAAIiAFICIgLJjKAlRCHcAAkwAGbmAe4yOCOgAAAAAAAAAAAAAAAAAAAAAAAAAAAAA==

> <PUBCHEM_IUPAC_OPENEYE_NAME>
(1-methylquinuclidin-1-ium-3-yl) 2-hydroxy-2,2-diphenyl-acetate

> <PUBCHEM_IUPAC_CAS_NAME>
2-hydroxy-2,2-diphenylacetic acid (1-methyl-1-azoniabicyclo[2.2.2]octan-3-yl) ester

> <PUBCHEM_IUPAC_NAME_MARKUP>
(1-methyl-1-azoniabicyclo[2.2.2]octan-3-yl) 2-hydroxy-2,2-diphenylacetate

> <PUBCHEM_IUPAC_NAME>
(1-methyl-1-azoniabicyclo[2.2.2]octan-3-yl) 2-hydroxy-2,2-diphenylacetate

> <PUBCHEM_IUPAC_SYSTEMATIC_NAME>
(1-methyl-1-azoniabicyclo[2.2.2]octan-3-yl) 2-oxidanyl-2,2-diphenyl-ethanoate

> <PUBCHEM_IUPAC_TRADITIONAL_NAME>
2-hydroxy-2,2-diphenyl-acetic acid (1-methylquinuclidin-1-ium-3-yl) ester

> <PUBCHEM_IUPAC_INCHI>
InChI=1S/C22H26NO3/c1-23-14-12-17(13-15-23)20(16-23)26-21(24)22(25,18-8-4-2-5-9-18)19-10-6-3-7-11-19/h2-11,17,20,25H,12-16H2,1H3/q+1

> <PUBCHEM_IUPAC_INCHIKEY>
HOOSGZJRQIVJSZ-UHFFFAOYSA-N

> <PUBCHEM_XLOGP3_AA>
3.3

> <PUBCHEM_EXACT_MASS>
352.19126869

> <PUBCHEM_MOLECULAR_FORMULA>
C22H26NO3+

> <PUBCHEM_MOLECULAR_WEIGHT>
352.4

> <PUBCHEM_OPENEYE_CAN_SMILES>
C[N+]12CCC(CC1)C(C2)OC(=O)C(C3=CC=CC=C3)(C4=CC=CC=C4)O

> <PUBCHEM_OPENEYE_ISO_SMILES>
C[N+]12CCC(CC1)C(C2)OC(=O)C(C3=CC=CC=C3)(C4=CC=CC=C4)O

> <PUBCHEM_CACTVS_TPSA>
46.5

> <PUBCHEM_MONOISOTOPIC_WEIGHT>
352.19126869

> <PUBCHEM_TOTAL_CHARGE>
1

> <PUBCHEM_HEAVY_ATOM_COUNT>
26

> <PUBCHEM_ATOM_DEF_STEREO_COUNT>
0

> <PUBCHEM_ATOM_UDEF_STEREO_COUNT>
1

> <PUBCHEM_BOND_DEF_STEREO_COUNT>
0

> <PUBCHEM_BOND_UDEF_STEREO_COUNT>
0

> <PUBCHEM_ISOTOPIC_ATOM_COUNT>
0

> <PUBCHEM_COMPONENT_COUNT>
1

> <PUBCHEM_CACTVS_TAUTO_COUNT>
-1

> <PUBCHEM_COORDINATE_TYPE>
1
5
255

> <PUBCHEM_BONDANNOTATIONS>
7  1  3
15  17  8
15  19  8
16  18  8
16  20  8
17  21  8
18  22  8
19  23  8
20  24  8
21  25  8
22  26  8
23  25  8
24  26  8

$$$$
