189821
  -OEChem-02142402172D

 63 67  0     1  0  0  0  0  0999 V2000
    8.4073   -2.7056    0.0000 O   0  0  0  0  0  0  0  0  0  0  0  0
    6.4739    2.0293    0.0000 O   0  0  0  0  0  0  0  0  0  0  0  0
    8.7828    0.4439    0.0000 O   0  0  0  0  0  0  0  0  0  0  0  0
   10.6092   -0.3712    0.0000 O   0  0  0  0  0  0  0  0  0  0  0  0
    2.0000    2.6736    0.0000 O   0  0  0  0  0  0  0  0  0  0  0  0
   11.6261   -1.7733    0.0000 O   0  0  0  0  0  0  0  0  0  0  0  0
    9.0594   -1.2445    0.0000 N   0  0  0  0  0  0  0  0  0  0  0  0
    7.3399   -0.4707    0.0000 C   0  0  1  0  0  0  0  0  0  0  0  0
    6.4739   -0.9707    0.0000 C   0  0  2  0  0  0  0  0  0  0  0  0
    5.6079   -0.4707    0.0000 C   0  0  1  0  0  0  0  0  0  0  0  0
    8.0770   -1.1378    0.0000 C   0  0  1  0  0  0  0  0  0  0  0  0
    5.6079    0.5293    0.0000 C   0  0  2  0  0  0  0  0  0  0  0  0
    6.6831   -1.9425    0.0000 C   0  0  0  0  0  0  0  0  0  0  0  0
    7.3399    0.5293    0.0000 C   0  0  0  0  0  0  0  0  0  0  0  0
    7.6718   -2.0456    0.0000 C   0  0  1  0  0  0  0  0  0  0  0  0
    6.4739    1.0293    0.0000 C   0  0  2  0  0  0  0  0  0  0  0  0
    4.7140    1.0639    0.0000 C   0  0  1  0  0  0  0  0  0  0  0  0
    4.7140   -1.0054    0.0000 C   0  0  0  0  0  0  0  0  0  0  0  0
    8.2060    0.0293    0.0000 C   0  0  0  0  0  0  0  0  0  0  0  0
    3.8079   -0.4915    0.0000 C   0  0  0  0  0  0  0  0  0  0  0  0
    3.8079    0.5501    0.0000 C   0  0  0  0  0  0  0  0  0  0  0  0
    8.8865   -0.5507    0.0000 C   0  0  0  0  0  0  0  0  0  0  0  0
    5.5838    1.5572    0.0000 C   0  0  0  0  0  0  0  0  0  0  0  0
    4.7390    2.1486    0.0000 C   0  0  0  0  0  0  0  0  0  0  0  0
    9.2632   -2.2115    0.0000 C   0  0  0  0  0  0  0  0  0  0  0  0
    2.8641    1.0853    0.0000 C   0  0  0  0  0  0  0  0  0  0  0  0
    9.7997   -0.9583    0.0000 C   0  0  0  0  0  0  0  0  0  0  0  0
    3.8079    2.7056    0.0000 C   0  0  0  0  0  0  0  0  0  0  0  0
   10.1763   -2.6190    0.0000 C   0  0  0  0  0  0  0  0  0  0  0  0
    2.8641    2.1703    0.0000 C   0  0  0  0  0  0  0  0  0  0  0  0
   11.5224   -0.7787    0.0000 C   0  0  0  0  0  0  0  0  0  0  0  0
   12.3319   -0.1916    0.0000 C   0  0  0  0  0  0  0  0  0  0  0  0
    5.7869   -1.4712    0.0000 H   0  0  0  0  0  0  0  0  0  0  0  0
    5.6144   -1.3207    0.0000 H   0  0  0  0  0  0  0  0  0  0  0  0
    6.3440    0.1043    0.0000 H   0  0  0  0  0  0  0  0  0  0  0  0
    6.0666   -2.0086    0.0000 H   0  0  0  0  0  0  0  0  0  0  0  0
    6.6840   -2.5625    0.0000 H   0  0  0  0  0  0  0  0  0  0  0  0
    7.9505    0.4216    0.0000 H   0  0  0  0  0  0  0  0  0  0  0  0
    7.5520    1.1119    0.0000 H   0  0  0  0  0  0  0  0  0  0  0  0
    7.3271   -2.8226    0.0000 H   0  0  0  0  0  0  0  0  0  0  0  0
    7.0108    1.3393    0.0000 H   0  0  0  0  0  0  0  0  0  0  0  0
    4.3203   -1.4844    0.0000 H   0  0  0  0  0  0  0  0  0  0  0  0
    5.1185   -1.4752    0.0000 H   0  0  0  0  0  0  0  0  0  0  0  0
    8.5160   -0.5077    0.0000 H   0  0  0  0  0  0  0  0  0  0  0  0
    8.7429    0.3393    0.0000 H   0  0  0  0  0  0  0  0  0  0  0  0
    7.8960    0.5662    0.0000 H   0  0  0  0  0  0  0  0  0  0  0  0
    3.1970   -0.3855    0.0000 H   0  0  0  0  0  0  0  0  0  0  0  0
    3.5988   -1.0752    0.0000 H   0  0  0  0  0  0  0  0  0  0  0  0
    5.8896    1.0179    0.0000 H   0  0  0  0  0  0  0  0  0  0  0  0
    6.1231    1.8631    0.0000 H   0  0  0  0  0  0  0  0  0  0  0  0
    5.2780    2.0966    0.0000 H   0  0  0  0  0  0  0  0  0  0  0  0
    5.2819    2.4482    0.0000 H   0  0  0  0  0  0  0  0  0  0  0  0
    7.0108    2.3393    0.0000 H   0  0  0  0  0  0  0  0  0  0  0  0
    2.3284    0.7733    0.0000 H   0  0  0  0  0  0  0  0  0  0  0  0
    9.4525   -1.4720    0.0000 H   0  0  0  0  0  0  0  0  0  0  0  0
   10.2453   -1.3893    0.0000 H   0  0  0  0  0  0  0  0  0  0  0  0
    3.8150    3.3255    0.0000 H   0  0  0  0  0  0  0  0  0  0  0  0
    9.9237   -3.1852    0.0000 H   0  0  0  0  0  0  0  0  0  0  0  0
   10.7425   -2.8716    0.0000 H   0  0  0  0  0  0  0  0  0  0  0  0
   10.4290   -2.0528    0.0000 H   0  0  0  0  0  0  0  0  0  0  0  0
   12.6959   -0.6935    0.0000 H   0  0  0  0  0  0  0  0  0  0  0  0
   12.8338    0.1724    0.0000 H   0  0  0  0  0  0  0  0  0  0  0  0
   11.9679    0.3103    0.0000 H   0  0  0  0  0  0  0  0  0  0  0  0
  1 15  1  0  0  0  0
  1 25  1  0  0  0  0
 16  2  1  1  0  0  0
  2 53  1  0  0  0  0
  3 22  2  0  0  0  0
  4 27  1  0  0  0  0
  4 31  1  0  0  0  0
  5 30  2  0  0  0  0
  6 31  2  0  0  0  0
  7 11  1  0  0  0  0
  7 25  2  0  0  0  0
  8  9  1  0  0  0  0
  8 11  1  0  0  0  0
  8 14  1  0  0  0  0
  8 19  1  1  0  0  0
  9 10  1  0  0  0  0
  9 13  1  0  0  0  0
  9 33  1  6  0  0  0
 10 12  1  0  0  0  0
 10 18  1  0  0  0  0
 10 34  1  1  0  0  0
 11 15  1  0  0  0  0
 11 22  1  1  0  0  0
 12 16  1  0  0  0  0
 12 17  1  0  0  0  0
 12 35  1  6  0  0  0
 13 15  1  0  0  0  0
 13 36  1  0  0  0  0
 13 37  1  0  0  0  0
 14 16  1  0  0  0  0
 14 38  1  0  0  0  0
 14 39  1  0  0  0  0
 15 40  1  1  0  0  0
 16 41  1  0  0  0  0
 17 21  1  0  0  0  0
 17 23  1  1  0  0  0
 17 24  1  0  0  0  0
 18 20  1  0  0  0  0
 18 42  1  0  0  0  0
 18 43  1  0  0  0  0
 19 44  1  0  0  0  0
 19 45  1  0  0  0  0
 19 46  1  0  0  0  0
 20 21  1  0  0  0  0
 20 47  1  0  0  0  0
 20 48  1  0  0  0  0
 21 26  2  0  0  0  0
 22 27  1  0  0  0  0
 23 49  1  0  0  0  0
 23 50  1  0  0  0  0
 23 51  1  0  0  0  0
 24 28  2  0  0  0  0
 24 52  1  0  0  0  0
 25 29  1  0  0  0  0
 26 30  1  0  0  0  0
 26 54  1  0  0  0  0
 27 55  1  0  0  0  0
 27 56  1  0  0  0  0
 28 30  1  0  0  0  0
 28 57  1  0  0  0  0
 29 58  1  0  0  0  0
 29 59  1  0  0  0  0
 29 60  1  0  0  0  0
 31 32  1  0  0  0  0
 32 61  1  0  0  0  0
 32 62  1  0  0  0  0
 32 63  1  0  0  0  0
M  END
> <PUBCHEM_COMPOUND_CID>
189821

> <PUBCHEM_COMPOUND_CANONICALIZED>
1

> <PUBCHEM_CACTVS_COMPLEXITY>
996

> <PUBCHEM_CACTVS_HBOND_ACCEPTOR>
7

> <PUBCHEM_CACTVS_HBOND_DONOR>
1

> <PUBCHEM_CACTVS_ROTATABLE_BOND>
4

> <PUBCHEM_CACTVS_SUBSKEYS>
AAADceB6OAAAAAAAAAAAAAAAAAAAAYIAAAAwYIAAAAAQAGDAAAAAHgAACAAAD5yhgAICCAIABgCoAqDyDAIAAAAgAAAICAHQAEgCEBYAgQQDQAAGoAAIAYP4/P3PgAAAAAAAAADAAAYAADAAAaAADQgAAA==

> <PUBCHEM_IUPAC_OPENEYE_NAME>
[2-[(1S,2S,4R,8S,9S,11S,12S,13R)-11-hydroxy-6,9,13-trimethyl-16-oxo-5-oxa-7-azapentacyclo[10.8.0.02,9.04,8.013,18]icosa-6,14,17-trien-8-yl]-2-oxo-ethyl] acetate

> <PUBCHEM_IUPAC_CAS_NAME>
acetic acid [2-[(1S,2S,4R,8S,9S,11S,12S,13R)-11-hydroxy-6,9,13-trimethyl-16-oxo-5-oxa-7-azapentacyclo[10.8.0.02,9.04,8.013,18]eicosa-6,14,17-trien-8-yl]-2-oxoethyl] ester

> <PUBCHEM_IUPAC_NAME_MARKUP>
[2-[(1<I>S</I>,2<I>S</I>,4<I>R</I>,8<I>S</I>,9<I>S</I>,11<I>S</I>,12<I>S</I>,13<I>R</I>)-11-hydroxy-6,9,13-trimethyl-16-oxo-5-oxa-7-azapentacyclo[10.8.0.0<SUP>2,9</SUP>.0<SUP>4,8</SUP>.0<SUP>13,18</SUP>]icosa-6,14,17-trien-8-yl]-2-oxoethyl] acetate

> <PUBCHEM_IUPAC_NAME>
[2-[(1S,2S,4R,8S,9S,11S,12S,13R)-11-hydroxy-6,9,13-trimethyl-16-oxo-5-oxa-7-azapentacyclo[10.8.0.02,9.04,8.013,18]icosa-6,14,17-trien-8-yl]-2-oxoethyl] acetate

> <PUBCHEM_IUPAC_SYSTEMATIC_NAME>
[2-oxidanylidene-2-[(1S,2S,4R,8S,9S,11S,12S,13R)-6,9,13-trimethyl-11-oxidanyl-16-oxidanylidene-5-oxa-7-azapentacyclo[10.8.0.02,9.04,8.013,18]icosa-6,14,17-trien-8-yl]ethyl] ethanoate

> <PUBCHEM_IUPAC_TRADITIONAL_NAME>
acetic acid [2-[(1S,2S,4R,8S,9S,11S,12S,13R)-11-hydroxy-16-keto-6,9,13-trimethyl-5-oxa-7-azapentacyclo[10.8.0.02,9.04,8.013,18]eicosa-6,14,17-trien-8-yl]-2-keto-ethyl] ester

> <PUBCHEM_IUPAC_INCHI>
InChI=1S/C25H31NO6/c1-13-26-25(20(30)12-31-14(2)27)21(32-13)10-18-17-6-5-15-9-16(28)7-8-23(15,3)22(17)19(29)11-24(18,25)4/h7-9,17-19,21-22,29H,5-6,10-12H2,1-4H3/t17-,18-,19-,21+,22+,23-,24-,25+/m0/s1

> <PUBCHEM_IUPAC_INCHIKEY>
FBHSPRKOSMHSIF-GRMWVWQJSA-N

> <PUBCHEM_XLOGP3_AA>
2

> <PUBCHEM_EXACT_MASS>
441.21513771

> <PUBCHEM_MOLECULAR_FORMULA>
C25H31NO6

> <PUBCHEM_MOLECULAR_WEIGHT>
441.5

> <PUBCHEM_OPENEYE_CAN_SMILES>
CC1=NC2(C(O1)CC3C2(CC(C4C3CCC5=CC(=O)C=CC45C)O)C)C(=O)COC(=O)C

> <PUBCHEM_OPENEYE_ISO_SMILES>
CC1=N[C@@]2([C@H](O1)C[C@@H]3[C@@]2(C[C@@H]([C@H]4[C@H]3CCC5=CC(=O)C=C[C@]45C)O)C)C(=O)COC(=O)C

> <PUBCHEM_CACTVS_TPSA>
102

> <PUBCHEM_MONOISOTOPIC_WEIGHT>
441.21513771

> <PUBCHEM_TOTAL_CHARGE>
0

> <PUBCHEM_HEAVY_ATOM_COUNT>
32

> <PUBCHEM_ATOM_DEF_STEREO_COUNT>
8

> <PUBCHEM_ATOM_UDEF_STEREO_COUNT>
0

> <PUBCHEM_BOND_DEF_STEREO_COUNT>
0

> <PUBCHEM_BOND_UDEF_STEREO_COUNT>
0

> <PUBCHEM_ISOTOPIC_ATOM_COUNT>
0

> <PUBCHEM_COMPONENT_COUNT>
1

> <PUBCHEM_CACTVS_TAUTO_COUNT>
-1

> <PUBCHEM_COORDINATE_TYPE>
1
5
255

> <PUBCHEM_BONDANNOTATIONS>
10  34  5
11  22  5
12  35  6
15  40  5
17  23  5
16  2  5
8  19  5
9  33  6

$$$$
