141233
  -OEChem-02142402212D

  2  1  0     0  0  0  0  0  0999 V2000
    2.0000    0.0000    0.0000 Na  0  0  0  0  0  0  0  0  0  0  0  0
    3.0000    0.0000    0.0000 Na  0  0  0  0  0  0  0  0  0  0  0  0
  1  2  1  0  0  0  0
M  END
> <PUBCHEM_COMPOUND_CID>
141233

> <PUBCHEM_COMPOUND_CANONICALIZED>
1

> <PUBCHEM_CACTVS_COMPLEXITY>
0

> <PUBCHEM_CACTVS_HBOND_ACCEPTOR>
0

> <PUBCHEM_CACTVS_HBOND_DONOR>
0

> <PUBCHEM_CACTVS_ROTATABLE_BOND>
0

> <PUBCHEM_CACTVS_SUBSKEYS>
AAADcQAAADAAAAAAAAAAAAAAAAAAAAAAAAAAAAAAAAAAAAAAAAAAAAAAAAAAAAAAAAAAAAAAAAAAAAAAAAAAAAAAAAAAAAAAAAAAAAAAAAAAAAAAAAAAAAAAAAAAAAAAAAAAAAAAAAAAAAAAAAAAAAAAAA==

> <PUBCHEM_IUPAC_OPENEYE_NAME>
sodiosodium

> <PUBCHEM_IUPAC_CAS_NAME>
sodiosodium

> <PUBCHEM_IUPAC_NAME_MARKUP>
sodiosodium

> <PUBCHEM_IUPAC_NAME>
sodiosodium

> <PUBCHEM_IUPAC_SYSTEMATIC_NAME>
sodiosodium

> <PUBCHEM_IUPAC_TRADITIONAL_NAME>
sodiosodium

> <PUBCHEM_IUPAC_INCHI>
InChI=1S/2Na

> <PUBCHEM_IUPAC_INCHIKEY>
QXNVGIXVLWOKEQ-UHFFFAOYSA-N

> <PUBCHEM_EXACT_MASS>
45.97953856

> <PUBCHEM_MOLECULAR_FORMULA>
Na2

> <PUBCHEM_MOLECULAR_WEIGHT>
45.9795386

> <PUBCHEM_OPENEYE_CAN_SMILES>
[Na][Na]

> <PUBCHEM_OPENEYE_ISO_SMILES>
[Na][Na]

> <PUBCHEM_CACTVS_TPSA>
0

> <PUBCHEM_MONOISOTOPIC_WEIGHT>
45.97953856

> <PUBCHEM_TOTAL_CHARGE>
0

> <PUBCHEM_HEAVY_ATOM_COUNT>
2

> <PUBCHEM_ATOM_DEF_STEREO_COUNT>
0

> <PUBCHEM_ATOM_UDEF_STEREO_COUNT>
0

> <PUBCHEM_BOND_DEF_STEREO_COUNT>
0

> <PUBCHEM_BOND_UDEF_STEREO_COUNT>
0

> <PUBCHEM_ISOTOPIC_ATOM_COUNT>
0

> <PUBCHEM_COMPONENT_COUNT>
1

> <PUBCHEM_CACTVS_TAUTO_COUNT>
-1

> <PUBCHEM_COORDINATE_TYPE>
1
5
255

$$$$
