53276
  -OEChem-02142402252D

 39 40  0     0  0  0  0  0  0999 V2000
   11.5263   -3.2500    0.0000 F   0  0  0  0  0  0  0  0  0  0  0  0
    2.8660    1.7500    0.0000 O   0  0  0  0  0  0  0  0  0  0  0  0
    4.5981    1.7500    0.0000 O   0  0  0  0  0  0  0  0  0  0  0  0
    7.1962   -1.7500    0.0000 N   0  0  0  0  0  0  0  0  0  0  0  0
    5.4641   -1.7500    0.0000 N   0  0  0  0  0  0  0  0  0  0  0  0
    3.7320    0.2500    0.0000 N   0  0  0  0  0  0  0  0  0  0  0  0
    3.7320   -1.7500    0.0000 N   0  0  0  0  0  0  0  0  0  0  0  0
    8.0622   -1.2500    0.0000 C   0  0  0  0  0  0  0  0  0  0  0  0
    8.9282   -1.7500    0.0000 C   0  0  0  0  0  0  0  0  0  0  0  0
    6.3301   -1.2500    0.0000 C   0  0  0  0  0  0  0  0  0  0  0  0
    4.5981   -0.2500    0.0000 C   0  0  0  0  0  0  0  0  0  0  0  0
    6.3301   -0.2500    0.0000 C   0  0  0  0  0  0  0  0  0  0  0  0
    4.5981   -1.2500    0.0000 C   0  0  0  0  0  0  0  0  0  0  0  0
    8.9282   -2.7500    0.0000 C   0  0  0  0  0  0  0  0  0  0  0  0
    9.7942   -1.2500    0.0000 C   0  0  0  0  0  0  0  0  0  0  0  0
    5.4641    0.2500    0.0000 C   0  0  0  0  0  0  0  0  0  0  0  0
    9.7942   -3.2500    0.0000 C   0  0  0  0  0  0  0  0  0  0  0  0
   10.6603   -1.7500    0.0000 C   0  0  0  0  0  0  0  0  0  0  0  0
   10.6603   -2.7500    0.0000 C   0  0  0  0  0  0  0  0  0  0  0  0
    3.7320    1.2500    0.0000 C   0  0  0  0  0  0  0  0  0  0  0  0
    2.8660    2.7500    0.0000 C   0  0  0  0  0  0  0  0  0  0  0  0
    2.0000    3.2500    0.0000 C   0  0  0  0  0  0  0  0  0  0  0  0
    8.4607   -0.7751    0.0000 H   0  0  0  0  0  0  0  0  0  0  0  0
    7.6636   -0.7751    0.0000 H   0  0  0  0  0  0  0  0  0  0  0  0
    7.1962   -2.3700    0.0000 H   0  0  0  0  0  0  0  0  0  0  0  0
    6.8671    0.0600    0.0000 H   0  0  0  0  0  0  0  0  0  0  0  0
    5.4641    0.8700    0.0000 H   0  0  0  0  0  0  0  0  0  0  0  0
    8.3913   -3.0600    0.0000 H   0  0  0  0  0  0  0  0  0  0  0  0
    9.7942   -0.6300    0.0000 H   0  0  0  0  0  0  0  0  0  0  0  0
    9.7942   -3.8700    0.0000 H   0  0  0  0  0  0  0  0  0  0  0  0
   11.1972   -1.4400    0.0000 H   0  0  0  0  0  0  0  0  0  0  0  0
    3.1951   -0.0600    0.0000 H   0  0  0  0  0  0  0  0  0  0  0  0
    3.7320   -2.3700    0.0000 H   0  0  0  0  0  0  0  0  0  0  0  0
    3.1951   -1.4400    0.0000 H   0  0  0  0  0  0  0  0  0  0  0  0
    3.4766    2.6423    0.0000 H   0  0  0  0  0  0  0  0  0  0  0  0
    3.0781    3.3326    0.0000 H   0  0  0  0  0  0  0  0  0  0  0  0
    2.3100    3.7869    0.0000 H   0  0  0  0  0  0  0  0  0  0  0  0
    1.4631    3.5600    0.0000 H   0  0  0  0  0  0  0  0  0  0  0  0
    1.6900    2.7131    0.0000 H   0  0  0  0  0  0  0  0  0  0  0  0
  1 19  1  0  0  0  0
  2 20  1  0  0  0  0
  2 21  1  0  0  0  0
  3 20  2  0  0  0  0
  4  8  1  0  0  0  0
  4 10  1  0  0  0  0
  4 25  1  0  0  0  0
  5 10  2  0  0  0  0
  5 13  1  0  0  0  0
  6 11  1  0  0  0  0
  6 20  1  0  0  0  0
  6 32  1  0  0  0  0
  7 13  1  0  0  0  0
  7 33  1  0  0  0  0
  7 34  1  0  0  0  0
  8  9  1  0  0  0  0
  8 23  1  0  0  0  0
  8 24  1  0  0  0  0
  9 14  2  0  0  0  0
  9 15  1  0  0  0  0
 10 12  1  0  0  0  0
 11 13  2  0  0  0  0
 11 16  1  0  0  0  0
 12 16  2  0  0  0  0
 12 26  1  0  0  0  0
 14 17  1  0  0  0  0
 14 28  1  0  0  0  0
 15 18  2  0  0  0  0
 15 29  1  0  0  0  0
 16 27  1  0  0  0  0
 17 19  2  0  0  0  0
 17 30  1  0  0  0  0
 18 19  1  0  0  0  0
 18 31  1  0  0  0  0
 21 22  1  0  0  0  0
 21 35  1  0  0  0  0
 21 36  1  0  0  0  0
 22 37  1  0  0  0  0
 22 38  1  0  0  0  0
 22 39  1  0  0  0  0
M  END
> <PUBCHEM_COMPOUND_CID>
53276

> <PUBCHEM_COMPOUND_CANONICALIZED>
1

> <PUBCHEM_CACTVS_COMPLEXITY>
350

> <PUBCHEM_CACTVS_HBOND_ACCEPTOR>
6

> <PUBCHEM_CACTVS_HBOND_DONOR>
3

> <PUBCHEM_CACTVS_ROTATABLE_BOND>
6

> <PUBCHEM_CACTVS_SUBSKEYS>
AAADceBzsQAAAAAAAAAAAAAAAAAAAAAAAAA8QAAAAAAAAAABwAAAHwAQAAAADAjhmg4z+JLIFACoAiZifACCgCkhEiAJmKA4dJmIYOLAmZGcIAholALIyCcQgAAOAAAAAAAAAAAAAAAAAAAAAAAAAAAAAA==

> <PUBCHEM_IUPAC_OPENEYE_NAME>
ethyl N-[2-amino-6-[(4-fluorophenyl)methylamino]-3-pyridyl]carbamate

> <PUBCHEM_IUPAC_CAS_NAME>
N-[2-amino-6-[(4-fluorophenyl)methylamino]-3-pyridinyl]carbamic acid ethyl ester

> <PUBCHEM_IUPAC_NAME_MARKUP>
ethyl <I>N</I>-[2-amino-6-[(4-fluorophenyl)methylamino]pyridin-3-yl]carbamate

> <PUBCHEM_IUPAC_NAME>
ethyl N-[2-amino-6-[(4-fluorophenyl)methylamino]pyridin-3-yl]carbamate

> <PUBCHEM_IUPAC_SYSTEMATIC_NAME>
ethyl N-[2-azanyl-6-[(4-fluorophenyl)methylamino]pyridin-3-yl]carbamate

> <PUBCHEM_IUPAC_TRADITIONAL_NAME>
N-[2-amino-6-[(4-fluorobenzyl)amino]-3-pyridyl]carbamic acid ethyl ester

> <PUBCHEM_IUPAC_INCHI>
InChI=1S/C15H17FN4O2/c1-2-22-15(21)19-12-7-8-13(20-14(12)17)18-9-10-3-5-11(16)6-4-10/h3-8H,2,9H2,1H3,(H,19,21)(H3,17,18,20)

> <PUBCHEM_IUPAC_INCHIKEY>
JUUFBMODXQKSTD-UHFFFAOYSA-N

> <PUBCHEM_XLOGP3_AA>
2.4

> <PUBCHEM_EXACT_MASS>
304.13355396

> <PUBCHEM_MOLECULAR_FORMULA>
C15H17FN4O2

> <PUBCHEM_MOLECULAR_WEIGHT>
304.32

> <PUBCHEM_OPENEYE_CAN_SMILES>
CCOC(=O)NC1=C(N=C(C=C1)NCC2=CC=C(C=C2)F)N

> <PUBCHEM_OPENEYE_ISO_SMILES>
CCOC(=O)NC1=C(N=C(C=C1)NCC2=CC=C(C=C2)F)N

> <PUBCHEM_CACTVS_TPSA>
89.3

> <PUBCHEM_MONOISOTOPIC_WEIGHT>
304.13355396

> <PUBCHEM_TOTAL_CHARGE>
0

> <PUBCHEM_HEAVY_ATOM_COUNT>
22

> <PUBCHEM_ATOM_DEF_STEREO_COUNT>
0

> <PUBCHEM_ATOM_UDEF_STEREO_COUNT>
0

> <PUBCHEM_BOND_DEF_STEREO_COUNT>
0

> <PUBCHEM_BOND_UDEF_STEREO_COUNT>
0

> <PUBCHEM_ISOTOPIC_ATOM_COUNT>
0

> <PUBCHEM_COMPONENT_COUNT>
1

> <PUBCHEM_CACTVS_TAUTO_COUNT>
-1

> <PUBCHEM_COORDINATE_TYPE>
1
5
255

> <PUBCHEM_BONDANNOTATIONS>
10  12  8
11  13  8
11  16  8
12  16  8
14  17  8
15  18  8
17  19  8
18  19  8
5  10  8
5  13  8
9  14  8
9  15  8

$$$$
