3476
  -OEChem-02142402052D

 68 70  0     0  0  0  0  0  0999 V2000
    5.4921    2.8807    0.0000 S   0  0  0  0  0  0  0  0  0  0  0  0
    7.2242    3.8807    0.0000 O   0  0  0  0  0  0  0  0  0  0  0  0
    6.4921    2.8807    0.0000 O   0  0  0  0  0  0  0  0  0  0  0  0
    4.4921    2.8807    0.0000 O   0  0  0  0  0  0  0  0  0  0  0  0
    2.0000   -4.3981    0.0000 O   0  0  0  0  0  0  0  0  0  0  0  0
    2.8940   -2.6193    0.0000 O   0  0  0  0  0  0  0  0  0  0  0  0
    6.3582    5.3807    0.0000 N   0  0  0  0  0  0  0  0  0  0  0  0
    5.4921    3.8807    0.0000 N   0  0  0  0  0  0  0  0  0  0  0  0
    3.7601   -4.1193    0.0000 N   0  0  0  0  0  0  0  0  0  0  0  0
    4.6261   -2.6193    0.0000 N   0  0  0  0  0  0  0  0  0  0  0  0
    8.9562    6.8807    0.0000 C   0  0  0  0  0  0  0  0  0  0  0  0
    7.2242    5.8807    0.0000 C   0  0  0  0  0  0  0  0  0  0  0  0
    8.9562    5.8807    0.0000 C   0  0  0  0  0  0  0  0  0  0  0  0
    8.0902    7.3807    0.0000 C   0  0  0  0  0  0  0  0  0  0  0  0
    8.0902    5.3807    0.0000 C   0  0  0  0  0  0  0  0  0  0  0  0
    7.2242    6.8807    0.0000 C   0  0  0  0  0  0  0  0  0  0  0  0
    9.8222    7.3807    0.0000 C   0  0  0  0  0  0  0  0  0  0  0  0
    6.3582    4.3807    0.0000 C   0  0  0  0  0  0  0  0  0  0  0  0
    4.5691   -4.7071    0.0000 C   0  0  0  0  0  0  0  0  0  0  0  0
    4.2601   -5.6581    0.0000 C   0  0  0  0  0  0  0  0  0  0  0  0
    3.2601   -5.6581    0.0000 C   0  0  0  0  0  0  0  0  0  0  0  0
    5.4921    1.8807    0.0000 C   0  0  0  0  0  0  0  0  0  0  0  0
    2.9511   -4.7071    0.0000 C   0  0  0  0  0  0  0  0  0  0  0  0
    2.6723   -6.4672    0.0000 C   0  0  0  0  0  0  0  0  0  0  0  0
    5.4921   -1.1193    0.0000 C   0  0  0  0  0  0  0  0  0  0  0  0
    5.4921   -0.1193    0.0000 C   0  0  0  0  0  0  0  0  0  0  0  0
    3.7601   -3.1193    0.0000 C   0  0  0  0  0  0  0  0  0  0  0  0
    4.6261   -1.6193    0.0000 C   0  0  0  0  0  0  0  0  0  0  0  0
    4.6261    1.3807    0.0000 C   0  0  0  0  0  0  0  0  0  0  0  0
    6.3582    1.3807    0.0000 C   0  0  0  0  0  0  0  0  0  0  0  0
    4.8479   -6.4672    0.0000 C   0  0  0  0  0  0  0  0  0  0  0  0
    4.6261    0.3807    0.0000 C   0  0  0  0  0  0  0  0  0  0  0  0
    6.3582    0.3807    0.0000 C   0  0  0  0  0  0  0  0  0  0  0  0
    3.0790   -7.3807    0.0000 C   0  0  0  0  0  0  0  0  0  0  0  0
    9.4932    6.5707    0.0000 H   0  0  0  0  0  0  0  0  0  0  0  0
    7.2242    5.2607    0.0000 H   0  0  0  0  0  0  0  0  0  0  0  0
    9.1683    5.2981    0.0000 H   0  0  0  0  0  0  0  0  0  0  0  0
    9.5668    5.9884    0.0000 H   0  0  0  0  0  0  0  0  0  0  0  0
    8.4887    7.8556    0.0000 H   0  0  0  0  0  0  0  0  0  0  0  0
    7.6917    7.8556    0.0000 H   0  0  0  0  0  0  0  0  0  0  0  0
    7.6917    4.9058    0.0000 H   0  0  0  0  0  0  0  0  0  0  0  0
    8.4887    4.9058    0.0000 H   0  0  0  0  0  0  0  0  0  0  0  0
    7.0121    7.4633    0.0000 H   0  0  0  0  0  0  0  0  0  0  0  0
    6.6136    6.7730    0.0000 H   0  0  0  0  0  0  0  0  0  0  0  0
   10.1323    6.8438    0.0000 H   0  0  0  0  0  0  0  0  0  0  0  0
   10.3592    7.6907    0.0000 H   0  0  0  0  0  0  0  0  0  0  0  0
    9.5122    7.9176    0.0000 H   0  0  0  0  0  0  0  0  0  0  0  0
    5.8212    5.6907    0.0000 H   0  0  0  0  0  0  0  0  0  0  0  0
    4.9552    4.1907    0.0000 H   0  0  0  0  0  0  0  0  0  0  0  0
    5.1355   -4.9593    0.0000 H   0  0  0  0  0  0  0  0  0  0  0  0
    4.8791   -4.1701    0.0000 H   0  0  0  0  0  0  0  0  0  0  0  0
    2.2416   -6.0212    0.0000 H   0  0  0  0  0  0  0  0  0  0  0  0
    2.1583   -6.8139    0.0000 H   0  0  0  0  0  0  0  0  0  0  0  0
    5.7042   -1.7019    0.0000 H   0  0  0  0  0  0  0  0  0  0  0  0
    6.1027   -1.0116    0.0000 H   0  0  0  0  0  0  0  0  0  0  0  0
    4.4140   -1.0367    0.0000 H   0  0  0  0  0  0  0  0  0  0  0  0
    4.0155   -1.7270    0.0000 H   0  0  0  0  0  0  0  0  0  0  0  0
    4.3463   -6.8316    0.0000 H   0  0  0  0  0  0  0  0  0  0  0  0
    5.2123   -6.9688    0.0000 H   0  0  0  0  0  0  0  0  0  0  0  0
    5.3494   -6.1027    0.0000 H   0  0  0  0  0  0  0  0  0  0  0  0
    4.0892    1.6907    0.0000 H   0  0  0  0  0  0  0  0  0  0  0  0
    6.8951    1.6907    0.0000 H   0  0  0  0  0  0  0  0  0  0  0  0
    5.1630   -2.9293    0.0000 H   0  0  0  0  0  0  0  0  0  0  0  0
    4.0892    0.0707    0.0000 H   0  0  0  0  0  0  0  0  0  0  0  0
    6.8951    0.0707    0.0000 H   0  0  0  0  0  0  0  0  0  0  0  0
    2.5126   -7.6329    0.0000 H   0  0  0  0  0  0  0  0  0  0  0  0
    3.3312   -7.9471    0.0000 H   0  0  0  0  0  0  0  0  0  0  0  0
    3.6454   -7.1285    0.0000 H   0  0  0  0  0  0  0  0  0  0  0  0
  1  3  2  0  0  0  0
  1  4  2  0  0  0  0
  1  8  1  0  0  0  0
  1 22  1  0  0  0  0
  2 18  2  0  0  0  0
  5 23  2  0  0  0  0
  6 27  2  0  0  0  0
  7 12  1  0  0  0  0
  7 18  1  0  0  0  0
  7 48  1  0  0  0  0
  8 18  1  0  0  0  0
  8 49  1  0  0  0  0
  9 19  1  0  0  0  0
  9 23  1  0  0  0  0
  9 27  1  0  0  0  0
 10 27  1  0  0  0  0
 10 28  1  0  0  0  0
 10 63  1  0  0  0  0
 11 13  1  0  0  0  0
 11 14  1  0  0  0  0
 11 17  1  0  0  0  0
 11 35  1  0  0  0  0
 12 15  1  0  0  0  0
 12 16  1  0  0  0  0
 12 36  1  0  0  0  0
 13 15  1  0  0  0  0
 13 37  1  0  0  0  0
 13 38  1  0  0  0  0
 14 16  1  0  0  0  0
 14 39  1  0  0  0  0
 14 40  1  0  0  0  0
 15 41  1  0  0  0  0
 15 42  1  0  0  0  0
 16 43  1  0  0  0  0
 16 44  1  0  0  0  0
 17 45  1  0  0  0  0
 17 46  1  0  0  0  0
 17 47  1  0  0  0  0
 19 20  1  0  0  0  0
 19 50  1  0  0  0  0
 19 51  1  0  0  0  0
 20 21  2  0  0  0  0
 20 31  1  0  0  0  0
 21 23  1  0  0  0  0
 21 24  1  0  0  0  0
 22 29  2  0  0  0  0
 22 30  1  0  0  0  0
 24 34  1  0  0  0  0
 24 52  1  0  0  0  0
 24 53  1  0  0  0  0
 25 26  1  0  0  0  0
 25 28  1  0  0  0  0
 25 54  1  0  0  0  0
 25 55  1  0  0  0  0
 26 32  2  0  0  0  0
 26 33  1  0  0  0  0
 28 56  1  0  0  0  0
 28 57  1  0  0  0  0
 29 32  1  0  0  0  0
 29 61  1  0  0  0  0
 30 33  2  0  0  0  0
 30 62  1  0  0  0  0
 31 58  1  0  0  0  0
 31 59  1  0  0  0  0
 31 60  1  0  0  0  0
 32 64  1  0  0  0  0
 33 65  1  0  0  0  0
 34 66  1  0  0  0  0
 34 67  1  0  0  0  0
 34 68  1  0  0  0  0
M  END
> <PUBCHEM_COMPOUND_CID>
3476

> <PUBCHEM_COMPOUND_CANONICALIZED>
1

> <PUBCHEM_CACTVS_COMPLEXITY>
895

> <PUBCHEM_CACTVS_HBOND_ACCEPTOR>
5

> <PUBCHEM_CACTVS_HBOND_DONOR>
3

> <PUBCHEM_CACTVS_ROTATABLE_BOND>
7

> <PUBCHEM_CACTVS_SUBSKEYS>
AAADcfB7uABAAAAAAAAAAAAAAAAAAQAAAAAwYAAAAAAAAAABAAAAHgQQQAAADSjB2AQzAYPAAAKIAiFSEHDCABAgAAAIiJkIAMiIIDKAkRGEIAAolyKIiQcQgIAOEAAAAAAAAAAwAAAAAAAAAAAAAAAAAA==

> <PUBCHEM_IUPAC_OPENEYE_NAME>
4-ethyl-3-methyl-N-[2-[4-[(4-methylcyclohexyl)carbamoylsulfamoyl]phenyl]ethyl]-5-oxo-2H-pyrrole-1-carboxamide

> <PUBCHEM_IUPAC_CAS_NAME>
4-ethyl-3-methyl-N-[2-[4-[[[(4-methylcyclohexyl)amino]-oxomethyl]sulfamoyl]phenyl]ethyl]-5-oxo-2H-pyrrole-1-carboxamide

> <PUBCHEM_IUPAC_NAME_MARKUP>
4-ethyl-3-methyl-<I>N</I>-[2-[4-[(4-methylcyclohexyl)carbamoylsulfamoyl]phenyl]ethyl]-5-oxo-2<I>H</I>-pyrrole-1-carboxamide

> <PUBCHEM_IUPAC_NAME>
4-ethyl-3-methyl-N-[2-[4-[(4-methylcyclohexyl)carbamoylsulfamoyl]phenyl]ethyl]-5-oxo-2H-pyrrole-1-carboxamide

> <PUBCHEM_IUPAC_SYSTEMATIC_NAME>
4-ethyl-3-methyl-N-[2-[4-[(4-methylcyclohexyl)carbamoylsulfamoyl]phenyl]ethyl]-5-oxidanylidene-2H-pyrrole-1-carboxamide

> <PUBCHEM_IUPAC_TRADITIONAL_NAME>
3-ethyl-2-keto-4-methyl-N-[2-[4-[(4-methylcyclohexyl)carbamoylsulfamoyl]phenyl]ethyl]-3-pyrroline-1-carboxamide

> <PUBCHEM_IUPAC_INCHI>
InChI=1S/C24H34N4O5S/c1-4-21-17(3)15-28(22(21)29)24(31)25-14-13-18-7-11-20(12-8-18)34(32,33)27-23(30)26-19-9-5-16(2)6-10-19/h7-8,11-12,16,19H,4-6,9-10,13-15H2,1-3H3,(H,25,31)(H2,26,27,30)

> <PUBCHEM_IUPAC_INCHIKEY>
WIGIZIANZCJQQY-UHFFFAOYSA-N

> <PUBCHEM_XLOGP3_AA>
3.9

> <PUBCHEM_EXACT_MASS>
490.22499137

> <PUBCHEM_MOLECULAR_FORMULA>
C24H34N4O5S

> <PUBCHEM_MOLECULAR_WEIGHT>
490.6

> <PUBCHEM_OPENEYE_CAN_SMILES>
CCC1=C(CN(C1=O)C(=O)NCCC2=CC=C(C=C2)S(=O)(=O)NC(=O)NC3CCC(CC3)C)C

> <PUBCHEM_OPENEYE_ISO_SMILES>
CCC1=C(CN(C1=O)C(=O)NCCC2=CC=C(C=C2)S(=O)(=O)NC(=O)NC3CCC(CC3)C)C

> <PUBCHEM_CACTVS_TPSA>
133

> <PUBCHEM_MONOISOTOPIC_WEIGHT>
490.22499137

> <PUBCHEM_TOTAL_CHARGE>
0

> <PUBCHEM_HEAVY_ATOM_COUNT>
34

> <PUBCHEM_ATOM_DEF_STEREO_COUNT>
0

> <PUBCHEM_ATOM_UDEF_STEREO_COUNT>
0

> <PUBCHEM_BOND_DEF_STEREO_COUNT>
0

> <PUBCHEM_BOND_UDEF_STEREO_COUNT>
0

> <PUBCHEM_ISOTOPIC_ATOM_COUNT>
0

> <PUBCHEM_COMPONENT_COUNT>
1

> <PUBCHEM_CACTVS_TAUTO_COUNT>
-1

> <PUBCHEM_COORDINATE_TYPE>
1
5
255

> <PUBCHEM_BONDANNOTATIONS>
22  29  8
22  30  8
26  32  8
26  33  8
29  32  8
30  33  8

$$$$
