5282593
  -OEChem-02142402262D

 41 43  0     1  0  0  0  0  0999 V2000
    5.7004    0.4091    0.0000 O   0  0  0  0  0  0  0  0  0  0  0  0
    5.1080   -1.2185    0.0000 O   0  0  0  0  0  0  0  0  0  0  0  0
    7.5798   -0.2749    0.0000 O   0  0  0  0  0  0  0  0  0  0  0  0
    3.1885    3.0061    0.0000 N   0  0  0  0  0  0  0  0  0  0  0  0
    2.7107    1.0576    0.0000 C   0  0  1  0  0  0  0  0  0  0  0  0
    2.4519    2.0235    0.0000 C   0  0  2  0  0  0  0  0  0  0  0  0
    1.3117    0.5488    0.0000 C   0  0  0  0  0  0  0  0  0  0  0  0
    1.0529    1.5147    0.0000 C   0  0  0  0  0  0  0  0  0  0  0  0
    3.9317    0.1919    0.0000 C   0  0  0  0  0  0  0  0  0  0  0  0
    4.4851    1.7124    0.0000 C   0  0  0  0  0  0  0  0  0  0  0  0
    4.7607    0.7511    0.0000 C   0  0  0  0  0  0  0  0  0  0  0  0
    3.6885    3.8722    0.0000 C   0  0  0  0  0  0  0  0  0  0  0  0
    5.8741   -0.5757    0.0000 C   0  0  0  0  0  0  0  0  0  0  0  0
    6.8138   -0.9177    0.0000 C   0  0  3  0  0  0  0  0  0  0  0  0
    6.9874   -1.9025    0.0000 C   0  0  0  0  0  0  0  0  0  0  0  0
    6.2214   -2.5453    0.0000 C   0  0  0  0  0  0  0  0  0  0  0  0
    7.9271   -2.2446    0.0000 C   0  0  0  0  0  0  0  0  0  0  0  0
    6.3950   -3.5301    0.0000 C   0  0  0  0  0  0  0  0  0  0  0  0
    8.1008   -3.2294    0.0000 C   0  0  0  0  0  0  0  0  0  0  0  0
    7.3347   -3.8722    0.0000 C   0  0  0  0  0  0  0  0  0  0  0  0
    2.9307    0.2366    0.0000 H   0  0  0  0  0  0  0  0  0  0  0  0
    2.2319    2.8446    0.0000 H   0  0  0  0  0  0  0  0  0  0  0  0
    1.5067   -0.0398    0.0000 H   0  0  0  0  0  0  0  0  0  0  0  0
    0.7178    0.3710    0.0000 H   0  0  0  0  0  0  0  0  0  0  0  0
    0.4590    1.3369    0.0000 H   0  0  0  0  0  0  0  0  0  0  0  0
    0.8580    2.1032    0.0000 H   0  0  0  0  0  0  0  0  0  0  0  0
    4.3376   -0.2768    0.0000 H   0  0  0  0  0  0  0  0  0  0  0  0
    3.5150   -0.2672    0.0000 H   0  0  0  0  0  0  0  0  0  0  0  0
    4.4902    2.3324    0.0000 H   0  0  0  0  0  0  0  0  0  0  0  0
    5.0994    1.7962    0.0000 H   0  0  0  0  0  0  0  0  0  0  0  0
    5.2142    1.1740    0.0000 H   0  0  0  0  0  0  0  0  0  0  0  0
    3.1515    4.1822    0.0000 H   0  0  0  0  0  0  0  0  0  0  0  0
    3.9985    4.4091    0.0000 H   0  0  0  0  0  0  0  0  0  0  0  0
    4.2254    3.5622    0.0000 H   0  0  0  0  0  0  0  0  0  0  0  0
    7.3964   -1.1298    0.0000 H   0  0  0  0  0  0  0  0  0  0  0  0
    8.1624   -0.4870    0.0000 H   0  0  0  0  0  0  0  0  0  0  0  0
    5.6388   -2.3333    0.0000 H   0  0  0  0  0  0  0  0  0  0  0  0
    8.4021   -1.8460    0.0000 H   0  0  0  0  0  0  0  0  0  0  0  0
    5.9201   -3.9287    0.0000 H   0  0  0  0  0  0  0  0  0  0  0  0
    8.6834   -3.4414    0.0000 H   0  0  0  0  0  0  0  0  0  0  0  0
    7.4424   -4.4827    0.0000 H   0  0  0  0  0  0  0  0  0  0  0  0
  1 11  1  0  0  0  0
  1 13  1  0  0  0  0
  2 13  2  0  0  0  0
  3 14  1  0  0  0  0
  3 36  1  0  0  0  0
  4  5  1  0  0  0  0
  4  6  1  0  0  0  0
  4 12  1  0  0  0  0
  5  7  1  0  0  0  0
  5  9  1  0  0  0  0
  5 21  1  1  0  0  0
  6  8  1  0  0  0  0
  6 10  1  0  0  0  0
  6 22  1  6  0  0  0
  7  8  1  0  0  0  0
  7 23  1  0  0  0  0
  7 24  1  0  0  0  0
  8 25  1  0  0  0  0
  8 26  1  0  0  0  0
  9 11  1  0  0  0  0
  9 27  1  0  0  0  0
  9 28  1  0  0  0  0
 10 11  1  0  0  0  0
 10 29  1  0  0  0  0
 10 30  1  0  0  0  0
 11 31  1  0  0  0  0
 12 32  1  0  0  0  0
 12 33  1  0  0  0  0
 12 34  1  0  0  0  0
 13 14  1  0  0  0  0
 14 15  1  0  0  0  0
 14 35  1  0  0  0  0
 15 16  2  0  0  0  0
 15 17  1  0  0  0  0
 16 18  1  0  0  0  0
 16 37  1  0  0  0  0
 17 19  2  0  0  0  0
 17 38  1  0  0  0  0
 18 20  2  0  0  0  0
 18 39  1  0  0  0  0
 19 20  1  0  0  0  0
 19 40  1  0  0  0  0
 20 41  1  0  0  0  0
M  END
> <PUBCHEM_COMPOUND_CID>
5282593

> <PUBCHEM_COMPOUND_CANONICALIZED>
1

> <PUBCHEM_CACTVS_COMPLEXITY>
340

> <PUBCHEM_CACTVS_HBOND_ACCEPTOR>
4

> <PUBCHEM_CACTVS_HBOND_DONOR>
1

> <PUBCHEM_CACTVS_ROTATABLE_BOND>
4

> <PUBCHEM_CACTVS_SUBSKEYS>
AAADceB6MAAAAAAAAAAAAAAAAAAAAWAAAAA8QAAABgAAAAABAAAAHgAACAAADDzhmAYyCIMABgCIAiDSCAICAAAgAAAIiAFICIgJNjKAlRCGcAAmwAGLmAeYyKCOAAAAAAAAAAAAAAAAAAAAAAAAAAAAAA==

> <PUBCHEM_IUPAC_OPENEYE_NAME>
[(1S,5R)-8-methyl-8-azabicyclo[3.2.1]octan-3-yl] 2-hydroxy-2-phenyl-acetate

> <PUBCHEM_IUPAC_CAS_NAME>
2-hydroxy-2-phenylacetic acid [(1S,5R)-8-methyl-8-azabicyclo[3.2.1]octan-3-yl] ester

> <PUBCHEM_IUPAC_NAME_MARKUP>
[(1<I>S</I>,5<I>R</I>)-8-methyl-8-azabicyclo[3.2.1]octan-3-yl] 2-hydroxy-2-phenylacetate

> <PUBCHEM_IUPAC_NAME>
[(1S,5R)-8-methyl-8-azabicyclo[3.2.1]octan-3-yl] 2-hydroxy-2-phenylacetate

> <PUBCHEM_IUPAC_SYSTEMATIC_NAME>
[(1S,5R)-8-methyl-8-azabicyclo[3.2.1]octan-3-yl] 2-oxidanyl-2-phenyl-ethanoate

> <PUBCHEM_IUPAC_TRADITIONAL_NAME>
2-hydroxy-2-phenyl-acetic acid [(1S,5R)-8-methyl-8-azabicyclo[3.2.1]octan-3-yl] ester

> <PUBCHEM_IUPAC_INCHI>
InChI=1S/C16H21NO3/c1-17-12-7-8-13(17)10-14(9-12)20-16(19)15(18)11-5-3-2-4-6-11/h2-6,12-15,18H,7-10H2,1H3/t12-,13+,14?,15?

> <PUBCHEM_IUPAC_INCHIKEY>
ZTVIKZXZYLEVOL-DGKWVBSXSA-N

> <PUBCHEM_XLOGP3>
1.9

> <PUBCHEM_EXACT_MASS>
275.15214353

> <PUBCHEM_MOLECULAR_FORMULA>
C16H21NO3

> <PUBCHEM_MOLECULAR_WEIGHT>
275.34

> <PUBCHEM_OPENEYE_CAN_SMILES>
CN1C2CCC1CC(C2)OC(=O)C(C3=CC=CC=C3)O

> <PUBCHEM_OPENEYE_ISO_SMILES>
CN1[C@@H]2CC[C@H]1CC(C2)OC(=O)C(C3=CC=CC=C3)O

> <PUBCHEM_CACTVS_TPSA>
49.8

> <PUBCHEM_MONOISOTOPIC_WEIGHT>
275.15214353

> <PUBCHEM_TOTAL_CHARGE>
0

> <PUBCHEM_HEAVY_ATOM_COUNT>
20

> <PUBCHEM_ATOM_DEF_STEREO_COUNT>
2

> <PUBCHEM_ATOM_UDEF_STEREO_COUNT>
1

> <PUBCHEM_BOND_DEF_STEREO_COUNT>
0

> <PUBCHEM_BOND_UDEF_STEREO_COUNT>
0

> <PUBCHEM_ISOTOPIC_ATOM_COUNT>
0

> <PUBCHEM_COMPONENT_COUNT>
1

> <PUBCHEM_CACTVS_TAUTO_COUNT>
-1

> <PUBCHEM_COORDINATE_TYPE>
1
5
255

> <PUBCHEM_BONDANNOTATIONS>
15  16  8
15  17  8
16  18  8
17  19  8
18  20  8
19  20  8
14  3  3
5  21  5
6  22  6

$$$$
