3883
  -OEChem-02142402182D

 39 41  0     1  0  0  0  0  0999 V2000
    6.2619    1.4680    0.0000 S   0  0  3  0  0  0  0  0  0  0  0  0
   11.7619   -2.8621    0.0000 F   0  0  0  0  0  0  0  0  0  0  0  0
   12.1279   -1.4961    0.0000 F   0  0  0  0  0  0  0  0  0  0  0  0
   10.3959   -2.4961    0.0000 F   0  0  0  0  0  0  0  0  0  0  0  0
    9.7619   -1.1300    0.0000 O   0  0  0  0  0  0  0  0  0  0  0  0
    6.7619    2.3341    0.0000 O   0  0  0  0  0  0  0  0  0  0  0  0
    4.6783    2.2728    0.0000 N   0  0  0  0  0  0  0  0  0  0  0  0
    4.6783    0.6633    0.0000 N   0  0  0  0  0  0  0  0  0  0  0  0
    8.2619    1.4680    0.0000 N   0  0  0  0  0  0  0  0  0  0  0  0
    6.7619    0.6020    0.0000 C   0  0  0  0  0  0  0  0  0  0  0  0
    7.7619    0.6020    0.0000 C   0  0  0  0  0  0  0  0  0  0  0  0
    8.2619   -0.2640    0.0000 C   0  0  0  0  0  0  0  0  0  0  0  0
    5.2619    1.4680    0.0000 C   0  0  0  0  0  0  0  0  0  0  0  0
    3.7320    1.9680    0.0000 C   0  0  0  0  0  0  0  0  0  0  0  0
    3.7320    0.9680    0.0000 C   0  0  0  0  0  0  0  0  0  0  0  0
    9.2619   -0.2640    0.0000 C   0  0  0  0  0  0  0  0  0  0  0  0
    7.7619   -1.1300    0.0000 C   0  0  0  0  0  0  0  0  0  0  0  0
    2.8660    2.4680    0.0000 C   0  0  0  0  0  0  0  0  0  0  0  0
    9.7619    0.6020    0.0000 C   0  0  0  0  0  0  0  0  0  0  0  0
    2.8660    0.4680    0.0000 C   0  0  0  0  0  0  0  0  0  0  0  0
    9.2619    1.4680    0.0000 C   0  0  0  0  0  0  0  0  0  0  0  0
    2.0000    1.9680    0.0000 C   0  0  0  0  0  0  0  0  0  0  0  0
    2.0000    0.9680    0.0000 C   0  0  0  0  0  0  0  0  0  0  0  0
   10.7619   -1.1300    0.0000 C   0  0  0  0  0  0  0  0  0  0  0  0
   11.2619   -1.9961    0.0000 C   0  0  0  0  0  0  0  0  0  0  0  0
    6.1793    0.3900    0.0000 H   0  0  0  0  0  0  0  0  0  0  0  0
    6.8695   -0.0086    0.0000 H   0  0  0  0  0  0  0  0  0  0  0  0
    4.8709    2.8621    0.0000 H   0  0  0  0  0  0  0  0  0  0  0  0
    7.2249   -0.8200    0.0000 H   0  0  0  0  0  0  0  0  0  0  0  0
    7.4519   -1.6670    0.0000 H   0  0  0  0  0  0  0  0  0  0  0  0
    8.2988   -1.4400    0.0000 H   0  0  0  0  0  0  0  0  0  0  0  0
    2.8660    3.0880    0.0000 H   0  0  0  0  0  0  0  0  0  0  0  0
   10.3819    0.6020    0.0000 H   0  0  0  0  0  0  0  0  0  0  0  0
    2.8660   -0.1520    0.0000 H   0  0  0  0  0  0  0  0  0  0  0  0
    9.5719    2.0050    0.0000 H   0  0  0  0  0  0  0  0  0  0  0  0
    1.4631    2.2780    0.0000 H   0  0  0  0  0  0  0  0  0  0  0  0
    1.4631    0.6580    0.0000 H   0  0  0  0  0  0  0  0  0  0  0  0
   11.3445   -0.9180    0.0000 H   0  0  0  0  0  0  0  0  0  0  0  0
   10.6542   -0.5195    0.0000 H   0  0  0  0  0  0  0  0  0  0  0  0
  1  6  2  0  0  0  0
  1 10  1  0  0  0  0
  1 13  1  0  0  0  0
  2 25  1  0  0  0  0
  3 25  1  0  0  0  0
  4 25  1  0  0  0  0
  5 16  1  0  0  0  0
  5 24  1  0  0  0  0
  7 13  1  0  0  0  0
  7 14  1  0  0  0  0
  7 28  1  0  0  0  0
  8 13  2  0  0  0  0
  8 15  1  0  0  0  0
  9 11  2  0  0  0  0
  9 21  1  0  0  0  0
 10 11  1  0  0  0  0
 10 26  1  0  0  0  0
 10 27  1  0  0  0  0
 11 12  1  0  0  0  0
 12 16  2  0  0  0  0
 12 17  1  0  0  0  0
 14 15  1  0  0  0  0
 14 18  2  0  0  0  0
 15 20  2  0  0  0  0
 16 19  1  0  0  0  0
 17 29  1  0  0  0  0
 17 30  1  0  0  0  0
 17 31  1  0  0  0  0
 18 22  1  0  0  0  0
 18 32  1  0  0  0  0
 19 21  2  0  0  0  0
 19 33  1  0  0  0  0
 20 23  1  0  0  0  0
 20 34  1  0  0  0  0
 21 35  1  0  0  0  0
 22 23  2  0  0  0  0
 22 36  1  0  0  0  0
 23 37  1  0  0  0  0
 24 25  1  0  0  0  0
 24 38  1  0  0  0  0
 24 39  1  0  0  0  0
M  END
> <PUBCHEM_COMPOUND_CID>
3883

> <PUBCHEM_COMPOUND_CANONICALIZED>
1

> <PUBCHEM_CACTVS_COMPLEXITY>
480

> <PUBCHEM_CACTVS_HBOND_ACCEPTOR>
8

> <PUBCHEM_CACTVS_HBOND_DONOR>
1

> <PUBCHEM_CACTVS_ROTATABLE_BOND>
5

> <PUBCHEM_CACTVS_SUBSKEYS>
AAADccB7MYBAAAAAAAAAAAAAAAAAAWAAAAA8QAAAAAAAAFgB/AAAHwQQAAAADAzl3ha/1rbJlAqgAzRnZEDK2i3xMrAJ2SA+fJiMbuLkuZuWOCjukBrI6CcQAAAOAAAAAAAAACAAAAAAAAAAQAAAAAAAAA==

> <PUBCHEM_IUPAC_OPENEYE_NAME>
2-[[3-methyl-4-(2,2,2-trifluoroethoxy)-2-pyridyl]methylsulfinyl]-1H-benzimidazole

> <PUBCHEM_IUPAC_CAS_NAME>
2-[[3-methyl-4-(2,2,2-trifluoroethoxy)-2-pyridinyl]methylsulfinyl]-1H-benzimidazole

> <PUBCHEM_IUPAC_NAME_MARKUP>
2-[[3-methyl-4-(2,2,2-trifluoroethoxy)pyridin-2-yl]methylsulfinyl]-1<I>H</I>-benzimidazole

> <PUBCHEM_IUPAC_NAME>
2-[[3-methyl-4-(2,2,2-trifluoroethoxy)pyridin-2-yl]methylsulfinyl]-1H-benzimidazole

> <PUBCHEM_IUPAC_SYSTEMATIC_NAME>
2-[[3-methyl-4-[2,2,2-tris(fluoranyl)ethoxy]pyridin-2-yl]methylsulfinyl]-1H-benzimidazole

> <PUBCHEM_IUPAC_TRADITIONAL_NAME>
2-[[3-methyl-4-(2,2,2-trifluoroethoxy)-2-pyridyl]methylsulfinyl]-1H-benzimidazole

> <PUBCHEM_IUPAC_INCHI>
InChI=1S/C16H14F3N3O2S/c1-10-13(20-7-6-14(10)24-9-16(17,18)19)8-25(23)15-21-11-4-2-3-5-12(11)22-15/h2-7H,8-9H2,1H3,(H,21,22)

> <PUBCHEM_IUPAC_INCHIKEY>
MJIHNNLFOKEZEW-UHFFFAOYSA-N

> <PUBCHEM_XLOGP3>
2.8

> <PUBCHEM_EXACT_MASS>
369.07588236

> <PUBCHEM_MOLECULAR_FORMULA>
C16H14F3N3O2S

> <PUBCHEM_MOLECULAR_WEIGHT>
369.4

> <PUBCHEM_OPENEYE_CAN_SMILES>
CC1=C(C=CN=C1CS(=O)C2=NC3=CC=CC=C3N2)OCC(F)(F)F

> <PUBCHEM_OPENEYE_ISO_SMILES>
CC1=C(C=CN=C1CS(=O)C2=NC3=CC=CC=C3N2)OCC(F)(F)F

> <PUBCHEM_CACTVS_TPSA>
87.1

> <PUBCHEM_MONOISOTOPIC_WEIGHT>
369.07588236

> <PUBCHEM_TOTAL_CHARGE>
0

> <PUBCHEM_HEAVY_ATOM_COUNT>
25

> <PUBCHEM_ATOM_DEF_STEREO_COUNT>
0

> <PUBCHEM_ATOM_UDEF_STEREO_COUNT>
1

> <PUBCHEM_BOND_DEF_STEREO_COUNT>
0

> <PUBCHEM_BOND_UDEF_STEREO_COUNT>
0

> <PUBCHEM_ISOTOPIC_ATOM_COUNT>
0

> <PUBCHEM_COMPONENT_COUNT>
1

> <PUBCHEM_CACTVS_TAUTO_COUNT>
1

> <PUBCHEM_COORDINATE_TYPE>
1
5
255

> <PUBCHEM_BONDANNOTATIONS>
1  10  3
11  12  8
12  16  8
14  15  8
14  18  8
15  20  8
16  19  8
18  22  8
19  21  8
20  23  8
22  23  8
7  13  8
7  14  8
8  13  8
8  15  8
9  11  8
9  21  8

$$$$
