10096344
  -OEChem-02142402262D

 63 67  0     1  0  0  0  0  0999 V2000
    8.1301    1.1404    0.0000 O   0  0  0  0  0  0  0  0  0  0  0  0
    6.3981   -1.8596    0.0000 O   0  0  0  0  0  0  0  0  0  0  0  0
   11.5260   -0.8596    0.0000 N   0  0  3  0  0  0  0  0  0  0  0  0
    9.9424   -0.0549    0.0000 N   0  0  0  0  0  0  0  0  0  0  0  0
   13.5260   -2.5916    0.0000 N   0  0  0  0  0  0  0  0  0  0  0  0
    9.9424   -1.6643    0.0000 N   0  0  0  0  0  0  0  0  0  0  0  0
    8.1301   -1.8596    0.0000 N   0  0  0  0  0  0  0  0  0  0  0  0
    7.2641   -0.3596    0.0000 N   0  0  0  0  0  0  0  0  0  0  0  0
    4.6660    0.1404    0.0000 N   0  0  0  0  0  0  0  0  0  0  0  0
    5.5321   -1.3596    0.0000 N   0  0  0  0  0  0  0  0  0  0  0  0
   13.0260   -1.7256    0.0000 C   0  0  1  0  0  0  0  0  0  0  0  0
   12.0260   -1.7256    0.0000 C   0  0  0  0  0  0  0  0  0  0  0  0
   13.5260   -0.8596    0.0000 C   0  0  0  0  0  0  0  0  0  0  0  0
   13.0260    0.0064    0.0000 C   0  0  0  0  0  0  0  0  0  0  0  0
   12.0260    0.0064    0.0000 C   0  0  0  0  0  0  0  0  0  0  0  0
   10.5260   -0.8596    0.0000 C   0  0  0  0  0  0  0  0  0  0  0  0
    8.9962   -0.3596    0.0000 C   0  0  0  0  0  0  0  0  0  0  0  0
    8.9962   -1.3596    0.0000 C   0  0  0  0  0  0  0  0  0  0  0  0
   10.2530    0.8957    0.0000 C   0  0  0  0  0  0  0  0  0  0  0  0
    8.1301    0.1404    0.0000 C   0  0  0  0  0  0  0  0  0  0  0  0
    7.2641   -1.3596    0.0000 C   0  0  0  0  0  0  0  0  0  0  0  0
    6.3981    0.1404    0.0000 C   0  0  0  0  0  0  0  0  0  0  0  0
    8.1301   -2.8596    0.0000 C   0  0  0  0  0  0  0  0  0  0  0  0
    9.5852    1.6400    0.0000 C   0  0  0  0  0  0  0  0  0  0  0  0
    5.5321   -0.3596    0.0000 C   0  0  0  0  0  0  0  0  0  0  0  0
    3.8000   -0.3596    0.0000 C   0  0  0  0  0  0  0  0  0  0  0  0
    4.6660   -1.8596    0.0000 C   0  0  0  0  0  0  0  0  0  0  0  0
    3.8000   -1.3596    0.0000 C   0  0  0  0  0  0  0  0  0  0  0  0
    8.9174    2.3843    0.0000 C   0  0  0  0  0  0  0  0  0  0  0  0
    2.9061    0.1751    0.0000 C   0  0  0  0  0  0  0  0  0  0  0  0
    2.9061   -1.8942    0.0000 C   0  0  0  0  0  0  0  0  0  0  0  0
    4.6660   -2.8596    0.0000 C   0  0  0  0  0  0  0  0  0  0  0  0
    8.2495    3.1286    0.0000 C   0  0  0  0  0  0  0  0  0  0  0  0
    2.0000   -0.3388    0.0000 C   0  0  0  0  0  0  0  0  0  0  0  0
    2.0000   -1.3804    0.0000 C   0  0  0  0  0  0  0  0  0  0  0  0
   12.7160   -2.2626    0.0000 H   0  0  0  0  0  0  0  0  0  0  0  0
   11.4434   -1.9377    0.0000 H   0  0  0  0  0  0  0  0  0  0  0  0
   12.1337   -2.3362    0.0000 H   0  0  0  0  0  0  0  0  0  0  0  0
   14.0009   -1.2581    0.0000 H   0  0  0  0  0  0  0  0  0  0  0  0
   14.0009   -0.4611    0.0000 H   0  0  0  0  0  0  0  0  0  0  0  0
   12.1337    0.6170    0.0000 H   0  0  0  0  0  0  0  0  0  0  0  0
   11.4434    0.2185    0.0000 H   0  0  0  0  0  0  0  0  0  0  0  0
   13.6086    0.2185    0.0000 H   0  0  0  0  0  0  0  0  0  0  0  0
   12.9183    0.6170    0.0000 H   0  0  0  0  0  0  0  0  0  0  0  0
   14.1460   -2.5916    0.0000 H   0  0  0  0  0  0  0  0  0  0  0  0
   13.2160   -3.1286    0.0000 H   0  0  0  0  0  0  0  0  0  0  0  0
   10.8000    0.6036    0.0000 H   0  0  0  0  0  0  0  0  0  0  0  0
   10.6356    1.3836    0.0000 H   0  0  0  0  0  0  0  0  0  0  0  0
    6.7966    0.6154    0.0000 H   0  0  0  0  0  0  0  0  0  0  0  0
    5.9996    0.6154    0.0000 H   0  0  0  0  0  0  0  0  0  0  0  0
    7.5101   -2.8596    0.0000 H   0  0  0  0  0  0  0  0  0  0  0  0
    8.1301   -3.4796    0.0000 H   0  0  0  0  0  0  0  0  0  0  0  0
    8.7501   -2.8596    0.0000 H   0  0  0  0  0  0  0  0  0  0  0  0
    2.9132    0.7950    0.0000 H   0  0  0  0  0  0  0  0  0  0  0  0
    2.9132   -2.5142    0.0000 H   0  0  0  0  0  0  0  0  0  0  0  0
    4.0460   -2.8596    0.0000 H   0  0  0  0  0  0  0  0  0  0  0  0
    4.6660   -3.4796    0.0000 H   0  0  0  0  0  0  0  0  0  0  0  0
    5.2860   -2.8596    0.0000 H   0  0  0  0  0  0  0  0  0  0  0  0
    8.7110    3.5426    0.0000 H   0  0  0  0  0  0  0  0  0  0  0  0
    7.8354    3.5900    0.0000 H   0  0  0  0  0  0  0  0  0  0  0  0
    7.7880    2.7145    0.0000 H   0  0  0  0  0  0  0  0  0  0  0  0
    1.4643   -0.0267    0.0000 H   0  0  0  0  0  0  0  0  0  0  0  0
    1.4643   -1.6925    0.0000 H   0  0  0  0  0  0  0  0  0  0  0  0
  1 20  2  0  0  0  0
  2 21  2  0  0  0  0
  3 12  1  0  0  0  0
  3 15  1  0  0  0  0
  3 16  1  0  0  0  0
  4 16  1  0  0  0  0
  4 17  1  0  0  0  0
  4 19  1  0  0  0  0
 11  5  1  1  0  0  0
  5 45  1  0  0  0  0
  5 46  1  0  0  0  0
  6 16  2  0  0  0  0
  6 18  1  0  0  0  0
  7 18  1  0  0  0  0
  7 21  1  0  0  0  0
  7 23  1  0  0  0  0
  8 20  1  0  0  0  0
  8 21  1  0  0  0  0
  8 22  1  0  0  0  0
  9 25  2  0  0  0  0
  9 26  1  0  0  0  0
 10 25  1  0  0  0  0
 10 27  2  0  0  0  0
 11 12  1  0  0  0  0
 11 13  1  0  0  0  0
 11 36  1  0  0  0  0
 12 37  1  0  0  0  0
 12 38  1  0  0  0  0
 13 14  1  0  0  0  0
 13 39  1  0  0  0  0
 13 40  1  0  0  0  0
 14 15  1  0  0  0  0
 14 43  1  0  0  0  0
 14 44  1  0  0  0  0
 15 41  1  0  0  0  0
 15 42  1  0  0  0  0
 17 18  2  0  0  0  0
 17 20  1  0  0  0  0
 19 24  1  0  0  0  0
 19 47  1  0  0  0  0
 19 48  1  0  0  0  0
 22 25  1  0  0  0  0
 22 49  1  0  0  0  0
 22 50  1  0  0  0  0
 23 51  1  0  0  0  0
 23 52  1  0  0  0  0
 23 53  1  0  0  0  0
 24 29  3  0  0  0  0
 26 28  1  0  0  0  0
 26 30  2  0  0  0  0
 27 28  1  0  0  0  0
 27 32  1  0  0  0  0
 28 31  2  0  0  0  0
 29 33  1  0  0  0  0
 30 34  1  0  0  0  0
 30 54  1  0  0  0  0
 31 35  1  0  0  0  0
 31 55  1  0  0  0  0
 32 56  1  0  0  0  0
 32 57  1  0  0  0  0
 32 58  1  0  0  0  0
 33 59  1  0  0  0  0
 33 60  1  0  0  0  0
 33 61  1  0  0  0  0
 34 35  2  0  0  0  0
 34 62  1  0  0  0  0
 35 63  1  0  0  0  0
M  END
> <PUBCHEM_COMPOUND_CID>
10096344

> <PUBCHEM_COMPOUND_CANONICALIZED>
1

> <PUBCHEM_CACTVS_COMPLEXITY>
885

> <PUBCHEM_CACTVS_HBOND_ACCEPTOR>
7

> <PUBCHEM_CACTVS_HBOND_DONOR>
1

> <PUBCHEM_CACTVS_ROTATABLE_BOND>
4

> <PUBCHEM_CACTVS_SUBSKEYS>
AAADceB78AAAAAAAAAAAAAAAAAAAAWAAAAA8WLEAAAAAAFix/AAAHgAQAAAADCjBnwQz8PdMEADoEydydACCgC0nEqAJ2KG4dNiIaKrA2fGUJIholyLIyGcQgIAOAAAAAAACAAAAAAAAAAQAAAAAAAAAAA==

> <PUBCHEM_IUPAC_OPENEYE_NAME>
8-[(3R)-3-amino-1-piperidyl]-7-but-2-ynyl-3-methyl-1-[(4-methylquinazolin-2-yl)methyl]purine-2,6-dione

> <PUBCHEM_IUPAC_CAS_NAME>
8-[(3R)-3-amino-1-piperidinyl]-7-but-2-ynyl-3-methyl-1-[(4-methyl-2-quinazolinyl)methyl]purine-2,6-dione

> <PUBCHEM_IUPAC_NAME_MARKUP>
8-[(3<I>R</I>)-3-aminopiperidin-1-yl]-7-but-2-ynyl-3-methyl-1-[(4-methylquinazolin-2-yl)methyl]purine-2,6-dione

> <PUBCHEM_IUPAC_NAME>
8-[(3R)-3-aminopiperidin-1-yl]-7-but-2-ynyl-3-methyl-1-[(4-methylquinazolin-2-yl)methyl]purine-2,6-dione

> <PUBCHEM_IUPAC_SYSTEMATIC_NAME>
8-[(3R)-3-azanylpiperidin-1-yl]-7-but-2-ynyl-3-methyl-1-[(4-methylquinazolin-2-yl)methyl]purine-2,6-dione

> <PUBCHEM_IUPAC_TRADITIONAL_NAME>
8-[(3R)-3-aminopiperidino]-7-but-2-ynyl-3-methyl-1-[(4-methylquinazolin-2-yl)methyl]xanthine

> <PUBCHEM_IUPAC_INCHI>
InChI=1S/C25H28N8O2/c1-4-5-13-32-21-22(29-24(32)31-12-8-9-17(26)14-31)30(3)25(35)33(23(21)34)15-20-27-16(2)18-10-6-7-11-19(18)28-20/h6-7,10-11,17H,8-9,12-15,26H2,1-3H3/t17-/m1/s1

> <PUBCHEM_IUPAC_INCHIKEY>
LTXREWYXXSTFRX-QGZVFWFLSA-N

> <PUBCHEM_XLOGP3_AA>
1.9

> <PUBCHEM_EXACT_MASS>
472.23352217

> <PUBCHEM_MOLECULAR_FORMULA>
C25H28N8O2

> <PUBCHEM_MOLECULAR_WEIGHT>
472.5

> <PUBCHEM_OPENEYE_CAN_SMILES>
CC#CCN1C2=C(N=C1N3CCCC(C3)N)N(C(=O)N(C2=O)CC4=NC5=CC=CC=C5C(=N4)C)C

> <PUBCHEM_OPENEYE_ISO_SMILES>
CC#CCN1C2=C(N=C1N3CCC[C@H](C3)N)N(C(=O)N(C2=O)CC4=NC5=CC=CC=C5C(=N4)C)C

> <PUBCHEM_CACTVS_TPSA>
114

> <PUBCHEM_MONOISOTOPIC_WEIGHT>
472.23352217

> <PUBCHEM_TOTAL_CHARGE>
0

> <PUBCHEM_HEAVY_ATOM_COUNT>
35

> <PUBCHEM_ATOM_DEF_STEREO_COUNT>
1

> <PUBCHEM_ATOM_UDEF_STEREO_COUNT>
0

> <PUBCHEM_BOND_DEF_STEREO_COUNT>
0

> <PUBCHEM_BOND_UDEF_STEREO_COUNT>
0

> <PUBCHEM_ISOTOPIC_ATOM_COUNT>
0

> <PUBCHEM_COMPONENT_COUNT>
1

> <PUBCHEM_CACTVS_TAUTO_COUNT>
-1

> <PUBCHEM_COORDINATE_TYPE>
1
5
255

> <PUBCHEM_BONDANNOTATIONS>
10  25  8
10  27  8
17  18  8
17  20  8
26  28  8
26  30  8
27  28  8
28  31  8
30  34  8
31  35  8
34  35  8
4  16  8
4  17  8
11  5  5
6  16  8
6  18  8
7  18  8
7  21  8
8  20  8
8  21  8
9  25  8
9  26  8

$$$$
