14792
  -OEChem-02142402082D

  2  1  0     0  0  0  0  0  0999 V2000
    3.0000    0.0000    0.0000 Mg  0  0  0  0  0  0  0  0  0  0  0  0
    2.0000    0.0000    0.0000 O   0  0  0  0  0  0  0  0  0  0  0  0
  1  2  2  0  0  0  0
M  END
> <PUBCHEM_COMPOUND_CID>
14792

> <PUBCHEM_COMPOUND_CANONICALIZED>
1

> <PUBCHEM_CACTVS_COMPLEXITY>
2

> <PUBCHEM_CACTVS_HBOND_ACCEPTOR>
1

> <PUBCHEM_CACTVS_HBOND_DONOR>
0

> <PUBCHEM_CACTVS_ROTATABLE_BOND>
0

> <PUBCHEM_CACTVS_SUBSKEYS>
AAADcQAAIAAAACAAAAAAAAAAAAAAAAAAAAAAAAAAAAAAAAAAAAAAAAAAAgAAAAAAAAAAAAAAAAAAAAAAAAAAAAAAAAAAAAAAAAAAAAAAAAAAAAAAAAAAAAAAAAAAAAAAAAAAAAAAAAAAAAAAAAAAAAAAAA==

> <PUBCHEM_IUPAC_OPENEYE_NAME>
oxomagnesium

> <PUBCHEM_IUPAC_CAS_NAME>
oxomagnesium

> <PUBCHEM_IUPAC_NAME_MARKUP>
oxomagnesium

> <PUBCHEM_IUPAC_NAME>
oxomagnesium

> <PUBCHEM_IUPAC_SYSTEMATIC_NAME>
oxidanylidenemagnesium

> <PUBCHEM_IUPAC_TRADITIONAL_NAME>
ketomagnesium

> <PUBCHEM_IUPAC_INCHI>
InChI=1S/Mg.O

> <PUBCHEM_IUPAC_INCHIKEY>
CPLXHLVBOLITMK-UHFFFAOYSA-N

> <PUBCHEM_EXACT_MASS>
39.9799563

> <PUBCHEM_MOLECULAR_FORMULA>
MgO

> <PUBCHEM_MOLECULAR_WEIGHT>
40.305

> <PUBCHEM_OPENEYE_CAN_SMILES>
O=[Mg]

> <PUBCHEM_OPENEYE_ISO_SMILES>
O=[Mg]

> <PUBCHEM_CACTVS_TPSA>
17.1

> <PUBCHEM_MONOISOTOPIC_WEIGHT>
39.9799563

> <PUBCHEM_TOTAL_CHARGE>
0

> <PUBCHEM_HEAVY_ATOM_COUNT>
2

> <PUBCHEM_ATOM_DEF_STEREO_COUNT>
0

> <PUBCHEM_ATOM_UDEF_STEREO_COUNT>
0

> <PUBCHEM_BOND_DEF_STEREO_COUNT>
0

> <PUBCHEM_BOND_UDEF_STEREO_COUNT>
0

> <PUBCHEM_ISOTOPIC_ATOM_COUNT>
0

> <PUBCHEM_COMPONENT_COUNT>
1

> <PUBCHEM_CACTVS_TAUTO_COUNT>
-1

> <PUBCHEM_COORDINATE_TYPE>
1
5
255

$$$$
