4054
  -OEChem-02142402092D

 34 36  0     1  0  0  0  0  0999 V2000
    3.6730    1.5251    0.0000 N   0  0  0  0  0  0  0  0  0  0  0  0
    4.5092   -0.9232    0.0000 C   0  0  3  0  0  0  0  0  0  0  0  0
    2.8368   -0.9232    0.0000 C   0  0  3  0  0  0  0  0  0  0  0  0
    3.6730    0.5251    0.0000 C   0  0  0  0  0  0  0  0  0  0  0  0
    2.9819   -1.3583    0.0000 C   0  0  0  0  0  0  0  0  0  0  0  0
    3.6730   -1.2260    0.0000 C   0  0  0  0  0  0  0  0  0  0  0  0
    4.5092    0.0423    0.0000 C   0  0  0  0  0  0  0  0  0  0  0  0
    2.8368    0.0423    0.0000 C   0  0  0  0  0  0  0  0  0  0  0  0
    3.8876   -1.8351    0.0000 C   0  0  0  0  0  0  0  0  0  0  0  0
    2.0000   -1.4060    0.0000 C   0  0  0  0  0  0  0  0  0  0  0  0
    2.9819   -0.3130    0.0000 C   0  0  0  0  0  0  0  0  0  0  0  0
    5.2163   -1.6303    0.0000 C   0  0  0  0  0  0  0  0  0  0  0  0
    2.1297   -0.2161    0.0000 C   0  0  0  0  0  0  0  0  0  0  0  0
    2.8478   -1.9636    0.0000 H   0  0  0  0  0  0  0  0  0  0  0  0
    3.3030   -1.7235    0.0000 H   0  0  0  0  0  0  0  0  0  0  0  0
    4.0430   -1.7235    0.0000 H   0  0  0  0  0  0  0  0  0  0  0  0
    5.1198   -0.0653    0.0000 H   0  0  0  0  0  0  0  0  0  0  0  0
    4.7212    0.6249    0.0000 H   0  0  0  0  0  0  0  0  0  0  0  0
    2.6247    0.6249    0.0000 H   0  0  0  0  0  0  0  0  0  0  0  0
    2.2262   -0.0653    0.0000 H   0  0  0  0  0  0  0  0  0  0  0  0
    3.5782   -2.3724    0.0000 H   0  0  0  0  0  0  0  0  0  0  0  0
    4.4127   -2.1647    0.0000 H   0  0  0  0  0  0  0  0  0  0  0  0
    1.5188   -1.0151    0.0000 H   0  0  0  0  0  0  0  0  0  0  0  0
    1.8068   -1.9951    0.0000 H   0  0  0  0  0  0  0  0  0  0  0  0
    2.6383    0.2030    0.0000 H   0  0  0  0  0  0  0  0  0  0  0  0
    2.3885   -0.4925    0.0000 H   0  0  0  0  0  0  0  0  0  0  0  0
    4.7779   -2.0687    0.0000 H   0  0  0  0  0  0  0  0  0  0  0  0
    5.6547   -2.0687    0.0000 H   0  0  0  0  0  0  0  0  0  0  0  0
    5.6547   -1.1919    0.0000 H   0  0  0  0  0  0  0  0  0  0  0  0
    2.5681    0.2223    0.0000 H   0  0  0  0  0  0  0  0  0  0  0  0
    1.6913    0.2223    0.0000 H   0  0  0  0  0  0  0  0  0  0  0  0
    1.6913   -0.6545    0.0000 H   0  0  0  0  0  0  0  0  0  0  0  0
    4.2099    1.8351    0.0000 H   0  0  0  0  0  0  0  0  0  0  0  0
    3.1361    1.8351    0.0000 H   0  0  0  0  0  0  0  0  0  0  0  0
  1  4  1  0  0  0  0
  1 33  1  0  0  0  0
  1 34  1  0  0  0  0
  2  6  1  0  0  0  0
  2  7  1  0  0  0  0
  2  9  1  0  0  0  0
  2 12  1  0  0  0  0
  3  6  1  0  0  0  0
  3  8  1  0  0  0  0
  3 10  1  0  0  0  0
  3 13  1  0  0  0  0
  4  7  1  0  0  0  0
  4  8  1  0  0  0  0
  4 11  1  0  0  0  0
  5  9  1  0  0  0  0
  5 10  1  0  0  0  0
  5 11  1  0  0  0  0
  5 14  1  0  0  0  0
  6 15  1  0  0  0  0
  6 16  1  0  0  0  0
  7 17  1  0  0  0  0
  7 18  1  0  0  0  0
  8 19  1  0  0  0  0
  8 20  1  0  0  0  0
  9 21  1  0  0  0  0
  9 22  1  0  0  0  0
 10 23  1  0  0  0  0
 10 24  1  0  0  0  0
 11 25  1  0  0  0  0
 11 26  1  0  0  0  0
 12 27  1  0  0  0  0
 12 28  1  0  0  0  0
 12 29  1  0  0  0  0
 13 30  1  0  0  0  0
 13 31  1  0  0  0  0
 13 32  1  0  0  0  0
M  END
> <PUBCHEM_COMPOUND_CID>
4054

> <PUBCHEM_COMPOUND_CANONICALIZED>
1

> <PUBCHEM_CACTVS_COMPLEXITY>
240

> <PUBCHEM_CACTVS_HBOND_ACCEPTOR>
1

> <PUBCHEM_CACTVS_HBOND_DONOR>
1

> <PUBCHEM_CACTVS_ROTATABLE_BOND>
0

> <PUBCHEM_CACTVS_SUBSKEYS>
AAADceByAAAAAAAAAAAAAAAAAAAAAAAAAAAwYMGAAAAAAAAAAAAAHAAQAAAAD4iBAAACAABAAAAAAAAAAAAAAAAAAAAAAAAAAAAAAAIAgAAAAAAAEAAAAAEQgMAPAAAAAAAAAAAAAASAAAAAAAAAAAAAAA==

> <PUBCHEM_IUPAC_OPENEYE_NAME>
3,5-dimethyladamantan-1-amine

> <PUBCHEM_IUPAC_CAS_NAME>
3,5-dimethyl-1-adamantanamine

> <PUBCHEM_IUPAC_NAME_MARKUP>
3,5-dimethyladamantan-1-amine

> <PUBCHEM_IUPAC_NAME>
3,5-dimethyladamantan-1-amine

> <PUBCHEM_IUPAC_SYSTEMATIC_NAME>
3,5-dimethyladamantan-1-amine

> <PUBCHEM_IUPAC_TRADITIONAL_NAME>
(3,5-dimethyl-1-adamantyl)amine

> <PUBCHEM_IUPAC_INCHI>
InChI=1S/C12H21N/c1-10-3-9-4-11(2,6-10)8-12(13,5-9)7-10/h9H,3-8,13H2,1-2H3

> <PUBCHEM_IUPAC_INCHIKEY>
BUGYDGFZZOZRHP-UHFFFAOYSA-N

> <PUBCHEM_XLOGP3>
3.3

> <PUBCHEM_EXACT_MASS>
179.167399674

> <PUBCHEM_MOLECULAR_FORMULA>
C12H21N

> <PUBCHEM_MOLECULAR_WEIGHT>
179.30

> <PUBCHEM_OPENEYE_CAN_SMILES>
CC12CC3CC(C1)(CC(C3)(C2)N)C

> <PUBCHEM_OPENEYE_ISO_SMILES>
CC12CC3CC(C1)(CC(C3)(C2)N)C

> <PUBCHEM_CACTVS_TPSA>
26

> <PUBCHEM_MONOISOTOPIC_WEIGHT>
179.167399674

> <PUBCHEM_TOTAL_CHARGE>
0

> <PUBCHEM_HEAVY_ATOM_COUNT>
13

> <PUBCHEM_ATOM_DEF_STEREO_COUNT>
0

> <PUBCHEM_ATOM_UDEF_STEREO_COUNT>
2

> <PUBCHEM_BOND_DEF_STEREO_COUNT>
0

> <PUBCHEM_BOND_UDEF_STEREO_COUNT>
0

> <PUBCHEM_ISOTOPIC_ATOM_COUNT>
0

> <PUBCHEM_COMPONENT_COUNT>
1

> <PUBCHEM_CACTVS_TAUTO_COUNT>
1

> <PUBCHEM_COORDINATE_TYPE>
1
5
255

> <PUBCHEM_BONDANNOTATIONS>
2  12  3
3  13  3

$$$$
