8378
  -OEChem-02142402252D

 88 91  0     1  0  0  0  0  0999 V2000
    7.0888    0.6070    0.0000 O   0  0  0  0  0  0  0  0  0  0  0  0
    8.2644    2.2250    0.0000 O   0  0  0  0  0  0  0  0  0  0  0  0
    5.5010   -0.2020    0.0000 O   0  0  0  0  0  0  0  0  0  0  0  0
    6.0010   -2.7409    0.0000 O   0  0  0  0  0  0  0  0  0  0  0  0
    5.0998    0.8160    0.0000 O   0  0  0  0  0  0  0  0  0  0  0  0
    9.2825    3.6263    0.0000 O   0  0  0  0  0  0  0  0  0  0  0  0
    4.2690   -2.7409    0.0000 O   0  0  0  0  0  0  0  0  0  0  0  0
    7.7611   -1.4621    0.0000 O   0  0  0  0  0  0  0  0  0  0  0  0
   11.7095    1.8629    0.0000 O   0  0  0  0  0  0  0  0  0  0  0  0
   11.9186    3.8520    0.0000 O   0  0  0  0  0  0  0  0  0  0  0  0
    4.2690   -5.7409    0.0000 O   0  0  0  0  0  0  0  0  0  0  0  0
    3.4978   -0.7930    0.0000 O   0  0  0  0  0  0  0  0  0  0  0  0
    2.5369   -4.7409    0.0000 O   0  0  0  0  0  0  0  0  0  0  0  0
    6.9677    4.2376    0.0000 N   0  0  0  0  0  0  0  0  0  0  0  0
    4.2863    2.6431    0.0000 N   0  0  0  0  0  0  0  0  0  0  0  0
    9.8824    1.0494    0.0000 N   0  0  0  0  0  0  0  0  0  0  0  0
    6.0010   -4.7409    0.0000 N   0  0  0  0  0  0  0  0  0  0  0  0
   11.2141    5.4343    0.0000 N   0  0  0  0  0  0  0  0  0  0  0  0
    2.5369   -1.7409    0.0000 N   0  0  0  0  0  0  0  0  0  0  0  0
    6.6821    1.5205    0.0000 C   0  0  1  0  0  0  0  0  0  0  0  0
    7.2699    2.3295    0.0000 C   0  0  1  0  0  0  0  0  0  0  0  0
    6.8631    3.2431    0.0000 C   0  0  2  0  0  0  0  0  0  0  0  0
    5.6876    1.6251    0.0000 C   0  0  2  0  0  0  0  0  0  0  0  0
    5.2808    2.5386    0.0000 C   0  0  1  0  0  0  0  0  0  0  0  0
    5.8686    3.3476    0.0000 C   0  0  0  0  0  0  0  0  0  0  0  0
    6.5010   -0.2020    0.0000 C   0  0  2  0  0  0  0  0  0  0  0  0
    6.0010   -1.7409    0.0000 C   0  0  1  0  0  0  0  0  0  0  0  0
    6.8100   -1.1531    0.0000 C   0  0  1  0  0  0  0  0  0  0  0  0
    5.1920   -1.1531    0.0000 C   0  0  1  0  0  0  0  0  0  0  0  0
    9.1779    2.6317    0.0000 C   0  0  1  0  0  0  0  0  0  0  0  0
    9.9870    2.0440    0.0000 C   0  0  1  0  0  0  0  0  0  0  0  0
   10.9005    2.4507    0.0000 C   0  0  2  0  0  0  0  0  0  0  0  0
    5.1350   -3.2409    0.0000 C   0  0  1  0  0  0  0  0  0  0  0  0
   11.0050    3.4452    0.0000 C   0  0  1  0  0  0  0  0  0  0  0  0
   10.1960    4.0330    0.0000 C   0  0  1  0  0  0  0  0  0  0  0  0
    5.1350   -4.2409    0.0000 C   0  0  1  0  0  0  0  0  0  0  0  0
    4.2690   -4.7409    0.0000 C   0  0  2  0  0  0  0  0  0  0  0  0
    4.2410   -1.4621    0.0000 C   0  0  0  0  0  0  0  0  0  0  0  0
    3.4030   -4.2409    0.0000 C   0  0  1  0  0  0  0  0  0  0  0  0
    3.4030   -3.2409    0.0000 C   0  0  2  0  0  0  0  0  0  0  0  0
   10.3005    5.0275    0.0000 C   0  0  0  0  0  0  0  0  0  0  0  0
    2.5369   -2.7409    0.0000 C   0  0  0  0  0  0  0  0  0  0  0  0
    6.3177    1.0189    0.0000 H   0  0  0  0  0  0  0  0  0  0  0  0
    7.6343    2.8311    0.0000 H   0  0  0  0  0  0  0  0  0  0  0  0
    7.4755    3.3401    0.0000 H   0  0  0  0  0  0  0  0  0  0  0  0
    5.0710    1.6899    0.0000 H   0  0  0  0  0  0  0  0  0  0  0  0
    5.0286    3.1050    0.0000 H   0  0  0  0  0  0  0  0  0  0  0  0
    6.0395    3.9436    0.0000 H   0  0  0  0  0  0  0  0  0  0  0  0
    5.3114    3.6194    0.0000 H   0  0  0  0  0  0  0  0  0  0  0  0
    7.1134   -0.2990    0.0000 H   0  0  0  0  0  0  0  0  0  0  0  0
    6.5535   -2.0224    0.0000 H   0  0  0  0  0  0  0  0  0  0  0  0
    7.2485   -0.7147    0.0000 H   0  0  0  0  0  0  0  0  0  0  0  0
    4.7536   -0.7147    0.0000 H   0  0  0  0  0  0  0  0  0  0  0  0
    9.1131    2.0152    0.0000 H   0  0  0  0  0  0  0  0  0  0  0  0
   10.4885    1.6795    0.0000 H   0  0  0  0  0  0  0  0  0  0  0  0
   10.8357    1.8341    0.0000 H   0  0  0  0  0  0  0  0  0  0  0  0
    5.1350   -2.6209    0.0000 H   0  0  0  0  0  0  0  0  0  0  0  0
    6.4661    4.6020    0.0000 H   0  0  0  0  0  0  0  0  0  0  0  0
    7.5341    4.4898    0.0000 H   0  0  0  0  0  0  0  0  0  0  0  0
   11.0698    4.0618    0.0000 H   0  0  0  0  0  0  0  0  0  0  0  0
    9.6944    4.3974    0.0000 H   0  0  0  0  0  0  0  0  0  0  0  0
    4.0341    3.2095    0.0000 H   0  0  0  0  0  0  0  0  0  0  0  0
    3.9219    2.1415    0.0000 H   0  0  0  0  0  0  0  0  0  0  0  0
    5.6720   -3.9309    0.0000 H   0  0  0  0  0  0  0  0  0  0  0  0
    4.4832    0.8808    0.0000 H   0  0  0  0  0  0  0  0  0  0  0  0
    4.8059   -5.0509    0.0000 H   0  0  0  0  0  0  0  0  0  0  0  0
    3.7524   -1.8438    0.0000 H   0  0  0  0  0  0  0  0  0  0  0  0
    4.5320   -2.0095    0.0000 H   0  0  0  0  0  0  0  0  0  0  0  0
    3.4030   -4.8609    0.0000 H   0  0  0  0  0  0  0  0  0  0  0  0
    3.4030   -2.6209    0.0000 H   0  0  0  0  0  0  0  0  0  0  0  0
    8.2219   -1.0472    0.0000 H   0  0  0  0  0  0  0  0  0  0  0  0
   10.1505    5.6291    0.0000 H   0  0  0  0  0  0  0  0  0  0  0  0
    9.6820    4.9843    0.0000 H   0  0  0  0  0  0  0  0  0  0  0  0
   10.3840    0.6850    0.0000 H   0  0  0  0  0  0  0  0  0  0  0  0
    9.3160    0.7973    0.0000 H   0  0  0  0  0  0  0  0  0  0  0  0
    1.9264   -2.6332    0.0000 H   0  0  0  0  0  0  0  0  0  0  0  0
    2.3249   -3.3235    0.0000 H   0  0  0  0  0  0  0  0  0  0  0  0
    6.0010   -5.3609    0.0000 H   0  0  0  0  0  0  0  0  0  0  0  0
    6.5380   -4.4309    0.0000 H   0  0  0  0  0  0  0  0  0  0  0  0
   12.2759    2.1151    0.0000 H   0  0  0  0  0  0  0  0  0  0  0  0
   12.4202    3.4875    0.0000 H   0  0  0  0  0  0  0  0  0  0  0  0
    3.7320   -6.0509    0.0000 H   0  0  0  0  0  0  0  0  0  0  0  0
    3.6267   -0.1865    0.0000 H   0  0  0  0  0  0  0  0  0  0  0  0
    2.0000   -4.4309    0.0000 H   0  0  0  0  0  0  0  0  0  0  0  0
   11.2789    6.0509    0.0000 H   0  0  0  0  0  0  0  0  0  0  0  0
   11.7157    5.0698    0.0000 H   0  0  0  0  0  0  0  0  0  0  0  0
    2.0000   -1.4309    0.0000 H   0  0  0  0  0  0  0  0  0  0  0  0
    3.0739   -1.4309    0.0000 H   0  0  0  0  0  0  0  0  0  0  0  0
 20  1  1  6  0  0  0
 26  1  1  1  0  0  0
 21  2  1  1  0  0  0
 30  2  1  1  0  0  0
  3 26  1  0  0  0  0
  3 29  1  0  0  0  0
 27  4  1  6  0  0  0
 33  4  1  6  0  0  0
 23  5  1  1  0  0  0
  5 65  1  0  0  0  0
  6 30  1  0  0  0  0
  6 35  1  0  0  0  0
  7 33  1  0  0  0  0
  7 40  1  0  0  0  0
 28  8  1  6  0  0  0
  8 71  1  0  0  0  0
 32  9  1  6  0  0  0
  9 80  1  0  0  0  0
 34 10  1  1  0  0  0
 10 81  1  0  0  0  0
 37 11  1  1  0  0  0
 11 82  1  0  0  0  0
 12 38  1  0  0  0  0
 12 83  1  0  0  0  0
 39 13  1  6  0  0  0
 13 84  1  0  0  0  0
 22 14  1  6  0  0  0
 14 58  1  0  0  0  0
 14 59  1  0  0  0  0
 24 15  1  6  0  0  0
 15 62  1  0  0  0  0
 15 63  1  0  0  0  0
 31 16  1  1  0  0  0
 16 74  1  0  0  0  0
 16 75  1  0  0  0  0
 36 17  1  6  0  0  0
 17 78  1  0  0  0  0
 17 79  1  0  0  0  0
 18 41  1  0  0  0  0
 18 85  1  0  0  0  0
 18 86  1  0  0  0  0
 19 42  1  0  0  0  0
 19 87  1  0  0  0  0
 19 88  1  0  0  0  0
 20 21  1  0  0  0  0
 20 23  1  0  0  0  0
 20 43  1  0  0  0  0
 21 22  1  0  0  0  0
 21 44  1  0  0  0  0
 22 25  1  0  0  0  0
 22 45  1  0  0  0  0
 23 24  1  0  0  0  0
 23 46  1  0  0  0  0
 24 25  1  0  0  0  0
 24 47  1  0  0  0  0
 25 48  1  0  0  0  0
 25 49  1  0  0  0  0
 26 28  1  0  0  0  0
 26 50  1  0  0  0  0
 27 28  1  0  0  0  0
 27 29  1  0  0  0  0
 27 51  1  0  0  0  0
 28 52  1  0  0  0  0
 29 38  1  1  0  0  0
 29 53  1  0  0  0  0
 30 31  1  0  0  0  0
 30 54  1  0  0  0  0
 31 32  1  0  0  0  0
 31 55  1  0  0  0  0
 32 34  1  0  0  0  0
 32 56  1  0  0  0  0
 33 36  1  0  0  0  0
 33 57  1  0  0  0  0
 34 35  1  0  0  0  0
 34 60  1  0  0  0  0
 35 41  1  6  0  0  0
 35 61  1  0  0  0  0
 36 37  1  0  0  0  0
 36 64  1  0  0  0  0
 37 39  1  0  0  0  0
 37 66  1  0  0  0  0
 38 67  1  0  0  0  0
 38 68  1  0  0  0  0
 39 40  1  0  0  0  0
 39 69  1  0  0  0  0
 40 42  1  6  0  0  0
 40 70  1  0  0  0  0
 41 72  1  0  0  0  0
 41 73  1  0  0  0  0
 42 76  1  0  0  0  0
 42 77  1  0  0  0  0
M  END
> <PUBCHEM_COMPOUND_CID>
8378

> <PUBCHEM_COMPOUND_CANONICALIZED>
1

> <PUBCHEM_CACTVS_COMPLEXITY>
872

> <PUBCHEM_CACTVS_HBOND_ACCEPTOR>
19

> <PUBCHEM_CACTVS_HBOND_DONOR>
13

> <PUBCHEM_CACTVS_ROTATABLE_BOND>
9

> <PUBCHEM_CACTVS_SUBSKEYS>
AAADcfB7vAAAAAAAAAAAAAAAAAAAASAAAAA0SIAAAAAAAAAAAAAAHgAQCAAACDzxgAcACABABgAAAAAAAAAAAAAAAAAAAIAAAAATEAIAwAAjQAAHEAAHAAHwcA0AAAAAAAAAAAAAgAAUCACgAAAAAAAAAA==

> <PUBCHEM_IUPAC_OPENEYE_NAME>
(2R,3S,4R,5R,6R)-5-amino-2-(aminomethyl)-6-[(1R,2R,3S,4R,6S)-4,6-diamino-2-[(2S,3R,4S,5R)-4-[(2R,3R,4R,5S,6S)-3-amino-6-(aminomethyl)-4,5-dihydroxy-tetrahydropyran-2-yl]oxy-3-hydroxy-5-(hydroxymethyl)tetrahydrofuran-2-yl]oxy-3-hydroxy-cyclohexoxy]tetrahydropyran-3,4-diol

> <PUBCHEM_IUPAC_CAS_NAME>
(2R,3S,4R,5R,6R)-5-amino-2-(aminomethyl)-6-[(1R,2R,3S,4R,6S)-4,6-diamino-2-[[(2S,3R,4S,5R)-4-[[(2R,3R,4R,5S,6S)-3-amino-6-(aminomethyl)-4,5-dihydroxy-2-oxanyl]oxy]-3-hydroxy-5-(hydroxymethyl)-2-oxolanyl]oxy]-3-hydroxycyclohexyl]oxyoxane-3,4-diol

> <PUBCHEM_IUPAC_NAME_MARKUP>
(2<I>R</I>,3<I>S</I>,4<I>R</I>,5<I>R</I>,6<I>R</I>)-5-amino-2-(aminomethyl)-6-[(1<I>R</I>,2<I>R</I>,3<I>S</I>,4<I>R</I>,6<I>S</I>)-4,6-diamino-2-[(2<I>S</I>,3<I>R</I>,4<I>S</I>,5<I>R</I>)-4-[(2<I>R</I>,3<I>R</I>,4<I>R</I>,5<I>S</I>,6<I>S</I>)-3-amino-6-(aminomethyl)-4,5-dihydroxyoxan-2-yl]oxy-3-hydroxy-5-(hydroxymethyl)oxolan-2-yl]oxy-3-hydroxycyclohexyl]oxyoxane-3,4-diol

> <PUBCHEM_IUPAC_NAME>
(2R,3S,4R,5R,6R)-5-amino-2-(aminomethyl)-6-[(1R,2R,3S,4R,6S)-4,6-diamino-2-[(2S,3R,4S,5R)-4-[(2R,3R,4R,5S,6S)-3-amino-6-(aminomethyl)-4,5-dihydroxyoxan-2-yl]oxy-3-hydroxy-5-(hydroxymethyl)oxolan-2-yl]oxy-3-hydroxycyclohexyl]oxyoxane-3,4-diol

> <PUBCHEM_IUPAC_SYSTEMATIC_NAME>
(2R,3S,4R,5R,6R)-2-(aminomethyl)-6-[(1R,2R,3S,4R,6S)-2-[(2S,3R,4S,5R)-4-[(2R,3R,4R,5S,6S)-6-(aminomethyl)-3-azanyl-4,5-bis(oxidanyl)oxan-2-yl]oxy-5-(hydroxymethyl)-3-oxidanyl-oxolan-2-yl]oxy-4,6-bis(azanyl)-3-oxidanyl-cyclohexyl]oxy-5-azanyl-oxane-3,4-diol

> <PUBCHEM_IUPAC_TRADITIONAL_NAME>
(2R,3S,4R,5R,6R)-5-amino-2-(aminomethyl)-6-[(1R,2R,3S,4R,6S)-4,6-diamino-2-[(2S,3R,4S,5R)-4-[(2R,3R,4R,5S,6S)-3-amino-6-(aminomethyl)-4,5-dihydroxy-tetrahydropyran-2-yl]oxy-3-hydroxy-5-methylol-tetrahydrofuran-2-yl]oxy-3-hydroxy-cyclohexoxy]tetrahydropyran-3,4-diol

> <PUBCHEM_IUPAC_INCHI>
InChI=1S/C23H46N6O13/c24-2-7-13(32)15(34)10(28)21(37-7)40-18-6(27)1-5(26)12(31)20(18)42-23-17(36)19(9(4-30)39-23)41-22-11(29)16(35)14(33)8(3-25)38-22/h5-23,30-36H,1-4,24-29H2/t5-,6+,7-,8+,9-,10-,11-,12+,13-,14-,15-,16-,17-,18-,19-,20-,21-,22-,23+/m1/s1

> <PUBCHEM_IUPAC_INCHIKEY>
PGBHMTALBVVCIT-VCIWKGPPSA-N

> <PUBCHEM_XLOGP3_AA>
-9

> <PUBCHEM_EXACT_MASS>
614.31228554

> <PUBCHEM_MOLECULAR_FORMULA>
C23H46N6O13

> <PUBCHEM_MOLECULAR_WEIGHT>
614.6

> <PUBCHEM_OPENEYE_CAN_SMILES>
C1C(C(C(C(C1N)OC2C(C(C(C(O2)CN)O)O)N)OC3C(C(C(O3)CO)OC4C(C(C(C(O4)CN)O)O)N)O)O)N

> <PUBCHEM_OPENEYE_ISO_SMILES>
C1[C@H]([C@@H]([C@H]([C@@H]([C@H]1N)O[C@@H]2[C@@H]([C@H]([C@@H]([C@H](O2)CN)O)O)N)O[C@H]3[C@@H]([C@@H]([C@H](O3)CO)O[C@@H]4[C@@H]([C@H]([C@@H]([C@@H](O4)CN)O)O)N)O)O)N

> <PUBCHEM_CACTVS_TPSA>
353

> <PUBCHEM_MONOISOTOPIC_WEIGHT>
614.31228554

> <PUBCHEM_TOTAL_CHARGE>
0

> <PUBCHEM_HEAVY_ATOM_COUNT>
42

> <PUBCHEM_ATOM_DEF_STEREO_COUNT>
19

> <PUBCHEM_ATOM_UDEF_STEREO_COUNT>
0

> <PUBCHEM_BOND_DEF_STEREO_COUNT>
0

> <PUBCHEM_BOND_UDEF_STEREO_COUNT>
0

> <PUBCHEM_ISOTOPIC_ATOM_COUNT>
0

> <PUBCHEM_COMPONENT_COUNT>
1

> <PUBCHEM_CACTVS_TAUTO_COUNT>
-1

> <PUBCHEM_COORDINATE_TYPE>
1
5
255

> <PUBCHEM_BONDANNOTATIONS>
20  1  6
26  1  5
34  10  5
37  11  5
39  13  6
22  14  6
24  15  6
31  16  5
36  17  6
21  2  5
30  2  5
29  38  5
35  41  6
27  4  6
33  4  6
40  42  6
23  5  5
28  8  6
32  9  6

$$$$
