71081
  -OEChem-02142402272D

  6  5  0     0  0  0  0  0  0999 V2000
    4.5981   -0.2500    0.0000 O   0  5  0  0  0  0  0  0  0  0  0  0
    2.0000    0.2500    0.0000 O   0  5  0  0  0  0  0  0  0  0  0  0
    3.7320    1.2500    0.0000 O   0  0  0  0  0  0  0  0  0  0  0  0
    2.8660   -1.2500    0.0000 O   0  0  0  0  0  0  0  0  0  0  0  0
    3.7320    0.2500    0.0000 C   0  0  0  0  0  0  0  0  0  0  0  0
    2.8660   -0.2500    0.0000 C   0  0  0  0  0  0  0  0  0  0  0  0
  1  5  1  0  0  0  0
  2  6  1  0  0  0  0
  3  5  2  0  0  0  0
  4  6  2  0  0  0  0
  5  6  1  0  0  0  0
M  CHG  2   1  -1   2  -1
M  END
> <PUBCHEM_COMPOUND_CID>
71081

> <PUBCHEM_COMPOUND_CANONICALIZED>
1

> <PUBCHEM_CACTVS_COMPLEXITY>
60.5

> <PUBCHEM_CACTVS_HBOND_ACCEPTOR>
4

> <PUBCHEM_CACTVS_HBOND_DONOR>
0

> <PUBCHEM_CACTVS_ROTATABLE_BOND>
0

> <PUBCHEM_CACTVS_SUBSKEYS>
AAADcQBAOAAAAAAAAAAAAAAAAAAAAAAAAAAAAAAAAAAAAAAAAAAACgAAAAAAAAAAgAAACAAAAAAIAACQCAIAAAAAAAAAAABAAAABAAAAAAAAAAAAAAAAAAAAAAAAAAAAAAAAAAAAAAAAAAAAAAAAAAAAAA==

> <PUBCHEM_IUPAC_OPENEYE_NAME>
oxalate

> <PUBCHEM_IUPAC_CAS_NAME>
oxalate

> <PUBCHEM_IUPAC_NAME_MARKUP>
oxalate

> <PUBCHEM_IUPAC_NAME>
oxalate

> <PUBCHEM_IUPAC_SYSTEMATIC_NAME>
ethanedioate

> <PUBCHEM_IUPAC_TRADITIONAL_NAME>
oxalate

> <PUBCHEM_IUPAC_INCHI>
InChI=1S/C2H2O4/c3-1(4)2(5)6/h(H,3,4)(H,5,6)/p-2

> <PUBCHEM_IUPAC_INCHIKEY>
MUBZPKHOEPUJKR-UHFFFAOYSA-L

> <PUBCHEM_XLOGP3_AA>
1

> <PUBCHEM_EXACT_MASS>
87.97965848

> <PUBCHEM_MOLECULAR_FORMULA>
C2O4-2

> <PUBCHEM_MOLECULAR_WEIGHT>
88.02

> <PUBCHEM_OPENEYE_CAN_SMILES>
C(=O)(C(=O)[O-])[O-]

> <PUBCHEM_OPENEYE_ISO_SMILES>
C(=O)(C(=O)[O-])[O-]

> <PUBCHEM_CACTVS_TPSA>
80.3

> <PUBCHEM_MONOISOTOPIC_WEIGHT>
87.97965848

> <PUBCHEM_TOTAL_CHARGE>
-2

> <PUBCHEM_HEAVY_ATOM_COUNT>
6

> <PUBCHEM_ATOM_DEF_STEREO_COUNT>
0

> <PUBCHEM_ATOM_UDEF_STEREO_COUNT>
0

> <PUBCHEM_BOND_DEF_STEREO_COUNT>
0

> <PUBCHEM_BOND_UDEF_STEREO_COUNT>
0

> <PUBCHEM_ISOTOPIC_ATOM_COUNT>
0

> <PUBCHEM_COMPONENT_COUNT>
1

> <PUBCHEM_CACTVS_TAUTO_COUNT>
-1

> <PUBCHEM_COORDINATE_TYPE>
1
5
255

$$$$
