54676228
  -OEChem-02142402112D

 36 38  0     1  0  0  0  0  0999 V2000
    4.6660   -2.0670    0.0000 S   0  0  0  0  0  0  0  0  0  0  0  0
    5.1660   -2.9330    0.0000 O   0  0  0  0  0  0  0  0  0  0  0  0
    4.1660   -2.9330    0.0000 O   0  0  0  0  0  0  0  0  0  0  0  0
    4.6660    0.9330    0.0000 O   0  0  0  0  0  0  0  0  0  0  0  0
    7.2641   -0.5670    0.0000 O   0  0  0  0  0  0  0  0  0  0  0  0
    5.5321   -1.5670    0.0000 N   0  0  3  0  0  0  0  0  0  0  0  0
    6.3981    0.9330    0.0000 N   0  0  0  0  0  0  0  0  0  0  0  0
    8.1301    0.9330    0.0000 N   0  0  0  0  0  0  0  0  0  0  0  0
    3.8000   -1.5670    0.0000 C   0  0  0  0  0  0  0  0  0  0  0  0
    3.8000   -0.5670    0.0000 C   0  0  0  0  0  0  0  0  0  0  0  0
    5.5321   -0.5670    0.0000 C   0  0  0  0  0  0  0  0  0  0  0  0
    4.6660   -0.0670    0.0000 C   0  0  0  0  0  0  0  0  0  0  0  0
    2.9061   -2.1016    0.0000 C   0  0  0  0  0  0  0  0  0  0  0  0
    6.3981   -2.0670    0.0000 C   0  0  0  0  0  0  0  0  0  0  0  0
    2.9061   -0.0323    0.0000 C   0  0  0  0  0  0  0  0  0  0  0  0
    6.3981   -0.0670    0.0000 C   0  0  0  0  0  0  0  0  0  0  0  0
    2.0000   -1.5878    0.0000 C   0  0  0  0  0  0  0  0  0  0  0  0
    2.0000   -0.5462    0.0000 C   0  0  0  0  0  0  0  0  0  0  0  0
    7.2641    1.4330    0.0000 C   0  0  0  0  0  0  0  0  0  0  0  0
    7.2641    2.4330    0.0000 C   0  0  0  0  0  0  0  0  0  0  0  0
    8.1301    2.9330    0.0000 C   0  0  0  0  0  0  0  0  0  0  0  0
    8.9962    1.4330    0.0000 C   0  0  0  0  0  0  0  0  0  0  0  0
    8.9962    2.4330    0.0000 C   0  0  0  0  0  0  0  0  0  0  0  0
    2.9132   -2.7216    0.0000 H   0  0  0  0  0  0  0  0  0  0  0  0
    6.0881   -2.6039    0.0000 H   0  0  0  0  0  0  0  0  0  0  0  0
    6.9350   -2.3770    0.0000 H   0  0  0  0  0  0  0  0  0  0  0  0
    6.7081   -1.5300    0.0000 H   0  0  0  0  0  0  0  0  0  0  0  0
    2.9132    0.5876    0.0000 H   0  0  0  0  0  0  0  0  0  0  0  0
    1.4643   -1.8999    0.0000 H   0  0  0  0  0  0  0  0  0  0  0  0
    1.4643   -0.2341    0.0000 H   0  0  0  0  0  0  0  0  0  0  0  0
    5.8612    1.2430    0.0000 H   0  0  0  0  0  0  0  0  0  0  0  0
    4.1291    1.2430    0.0000 H   0  0  0  0  0  0  0  0  0  0  0  0
    6.7272    2.7430    0.0000 H   0  0  0  0  0  0  0  0  0  0  0  0
    8.1301    3.5530    0.0000 H   0  0  0  0  0  0  0  0  0  0  0  0
    9.5331    1.1230    0.0000 H   0  0  0  0  0  0  0  0  0  0  0  0
    9.5331    2.7430    0.0000 H   0  0  0  0  0  0  0  0  0  0  0  0
  1  2  2  0  0  0  0
  1  3  2  0  0  0  0
  1  6  1  0  0  0  0
  1  9  1  0  0  0  0
  4 12  1  0  0  0  0
  4 32  1  0  0  0  0
  5 16  2  0  0  0  0
  6 11  1  0  0  0  0
  6 14  1  0  0  0  0
  7 16  1  0  0  0  0
  7 19  1  0  0  0  0
  7 31  1  0  0  0  0
  8 19  1  0  0  0  0
  8 22  2  0  0  0  0
  9 10  1  0  0  0  0
  9 13  2  0  0  0  0
 10 12  1  0  0  0  0
 10 15  2  0  0  0  0
 11 12  2  0  0  0  0
 11 16  1  0  0  0  0
 13 17  1  0  0  0  0
 13 24  1  0  0  0  0
 14 25  1  0  0  0  0
 14 26  1  0  0  0  0
 14 27  1  0  0  0  0
 15 18  1  0  0  0  0
 15 28  1  0  0  0  0
 17 18  2  0  0  0  0
 17 29  1  0  0  0  0
 18 30  1  0  0  0  0
 19 20  2  0  0  0  0
 20 21  1  0  0  0  0
 20 33  1  0  0  0  0
 21 23  2  0  0  0  0
 21 34  1  0  0  0  0
 22 23  1  0  0  0  0
 22 35  1  0  0  0  0
 23 36  1  0  0  0  0
M  END
> <PUBCHEM_COMPOUND_CID>
54676228

> <PUBCHEM_COMPOUND_CANONICALIZED>
1

> <PUBCHEM_CACTVS_COMPLEXITY>
611

> <PUBCHEM_CACTVS_HBOND_ACCEPTOR>
6

> <PUBCHEM_CACTVS_HBOND_DONOR>
2

> <PUBCHEM_CACTVS_ROTATABLE_BOND>
2

> <PUBCHEM_CACTVS_SUBSKEYS>
AAADccBzOABAAAAAAAAAAAAAAAAAAAAAAAA8QIAAAAAAAACBwAAAHgQQSAAADAzB2gQ/sZLIEgKoAjd3dHDCgDkxIiAJ2Di4bNiIZuLAmbGUcAhs1QPI2SeQwCAOAAAAAAAEAAAAAAAAAAgAAAAAAAAAAA==

> <PUBCHEM_IUPAC_OPENEYE_NAME>
4-hydroxy-2-methyl-1,1-dioxo-N-(2-pyridyl)-1lambda6,2-benzothiazine-3-carboxamide

> <PUBCHEM_IUPAC_CAS_NAME>
4-hydroxy-2-methyl-1,1-dioxo-N-(2-pyridinyl)-1lambda6,2-benzothiazine-3-carboxamide

> <PUBCHEM_IUPAC_NAME_MARKUP>
4-hydroxy-2-methyl-1,1-dioxo-<I>N</I>-pyridin-2-yl-1&lambda;<SUP>6</SUP>,2-benzothiazine-3-carboxamide

> <PUBCHEM_IUPAC_NAME>
4-hydroxy-2-methyl-1,1-dioxo-N-pyridin-2-yl-1lambda6,2-benzothiazine-3-carboxamide

> <PUBCHEM_IUPAC_SYSTEMATIC_NAME>
2-methyl-4-oxidanyl-1,1-bis(oxidanylidene)-N-pyridin-2-yl-1lambda6,2-benzothiazine-3-carboxamide

> <PUBCHEM_IUPAC_TRADITIONAL_NAME>
4-hydroxy-1,1-diketo-2-methyl-N-(2-pyridyl)-1lambda6,2-benzothiazine-3-carboxamide

> <PUBCHEM_IUPAC_INCHI>
InChI=1S/C15H13N3O4S/c1-18-13(15(20)17-12-8-4-5-9-16-12)14(19)10-6-2-3-7-11(10)23(18,21)22/h2-9,19H,1H3,(H,16,17,20)

> <PUBCHEM_IUPAC_INCHIKEY>
QYSPLQLAKJAUJT-UHFFFAOYSA-N

> <PUBCHEM_XLOGP3>
3.1

> <PUBCHEM_EXACT_MASS>
331.06267708

> <PUBCHEM_MOLECULAR_FORMULA>
C15H13N3O4S

> <PUBCHEM_MOLECULAR_WEIGHT>
331.3

> <PUBCHEM_OPENEYE_CAN_SMILES>
CN1C(=C(C2=CC=CC=C2S1(=O)=O)O)C(=O)NC3=CC=CC=N3

> <PUBCHEM_OPENEYE_ISO_SMILES>
CN1C(=C(C2=CC=CC=C2S1(=O)=O)O)C(=O)NC3=CC=CC=N3

> <PUBCHEM_CACTVS_TPSA>
108

> <PUBCHEM_MONOISOTOPIC_WEIGHT>
331.06267708

> <PUBCHEM_TOTAL_CHARGE>
0

> <PUBCHEM_HEAVY_ATOM_COUNT>
23

> <PUBCHEM_ATOM_DEF_STEREO_COUNT>
0

> <PUBCHEM_ATOM_UDEF_STEREO_COUNT>
0

> <PUBCHEM_BOND_DEF_STEREO_COUNT>
0

> <PUBCHEM_BOND_UDEF_STEREO_COUNT>
0

> <PUBCHEM_ISOTOPIC_ATOM_COUNT>
0

> <PUBCHEM_COMPONENT_COUNT>
1

> <PUBCHEM_CACTVS_TAUTO_COUNT>
14

> <PUBCHEM_COORDINATE_TYPE>
1
5
255

> <PUBCHEM_BONDANNOTATIONS>
10  15  8
13  17  8
15  18  8
17  18  8
19  20  8
20  21  8
21  23  8
22  23  8
8  19  8
8  22  8
9  10  8
9  13  8

$$$$
