135398735
  -OEChem-02142402072D

117121  0     1  0  0  0  0  0999 V2000
    5.8052   -2.5255    0.0000 O   0  0  0  0  0  0  0  0  0  0  0  0
    3.9694   -1.8722    0.0000 O   0  0  0  0  0  0  0  0  0  0  0  0
    4.6260    0.9768    0.0000 O   0  0  0  0  0  0  0  0  0  0  0  0
    7.8725   -2.9420    0.0000 O   0  0  0  0  0  0  0  0  0  0  0  0
   10.3856   -1.2467    0.0000 O   0  0  0  0  0  0  0  0  0  0  0  0
   10.8586    0.6588    0.0000 O   0  0  0  0  0  0  0  0  0  0  0  0
    6.9440   -3.8306    0.0000 O   0  0  0  0  0  0  0  0  0  0  0  0
    9.7755   -1.0964    0.0000 O   0  0  0  0  0  0  0  0  0  0  0  0
    9.2556    3.8259    0.0000 O   0  0  0  0  0  0  0  0  0  0  0  0
    8.1472    0.0327    0.0000 O   0  0  0  0  0  0  0  0  0  0  0  0
    7.5072    3.8605    0.0000 O   0  0  0  0  0  0  0  0  0  0  0  0
    4.0536    1.8750    0.0000 O   0  0  0  0  0  0  0  0  0  0  0  0
    5.0895   -0.9667    0.0000 N   0  0  0  0  0  0  0  0  0  0  0  0
    3.8097   -2.5037    0.0000 N   0  0  0  0  0  0  0  0  0  0  0  0
    5.6916    1.9066    0.0000 N   0  0  0  0  0  0  0  0  0  0  0  0
    5.7293   -0.1983    0.0000 N   0  0  0  0  0  0  0  0  0  0  0  0
    5.4715   -0.8259    0.0000 C   0  0  2  0  0  0  0  0  0  0  0  0
    4.4903   -1.0186    0.0000 C   0  0  1  0  0  0  0  0  0  0  0  0
    6.1290   -1.5794    0.0000 C   0  0  1  0  0  0  0  0  0  0  0  0
    3.6602   -0.4609    0.0000 C   0  0  1  0  0  0  0  0  0  0  0  0
    7.1103   -1.3867    0.0000 C   0  0  1  0  0  0  0  0  0  0  0  0
    3.7281    0.5368    0.0000 C   0  0  2  0  0  0  0  0  0  0  0  0
    6.4528   -0.6332    0.0000 C   0  0  0  0  0  0  0  0  0  0  0  0
    7.9404   -1.9444    0.0000 C   0  0  2  0  0  0  0  0  0  0  0  0
    2.8980    1.0944    0.0000 C   0  0  1  0  0  0  0  0  0  0  0  0
    2.7622   -0.9010    0.0000 C   0  0  0  0  0  0  0  0  0  0  0  0
    7.3078   -0.4064    0.0000 C   0  0  0  0  0  0  0  0  0  0  0  0
    2.0000    0.6543    0.0000 C   0  0  0  0  0  0  0  0  0  0  0  0
    8.8383   -1.5043    0.0000 C   0  0  0  0  0  0  0  0  0  0  0  0
    2.9658    2.0921    0.0000 C   0  0  0  0  0  0  0  0  0  0  0  0
    5.9979   -3.5068    0.0000 C   0  0  0  0  0  0  0  0  0  0  0  0
    9.6684   -2.0619    0.0000 C   0  0  0  0  0  0  0  0  0  0  0  0
    3.8638    2.5321    0.0000 C   0  0  0  0  0  0  0  0  0  0  0  0
    8.7026   -3.4997    0.0000 C   0  0  0  0  0  0  0  0  0  0  0  0
   10.4535   -0.2490    0.0000 C   0  0  1  0  0  0  0  0  0  0  0  0
    5.2444   -4.1643    0.0000 C   0  0  0  0  0  0  0  0  0  0  0  0
    9.2556    0.8259    0.0000 C   0  0  0  0  0  0  0  0  0  0  0  0
    9.4648   -0.1459    0.0000 C   0  0  0  0  0  0  0  0  0  0  0  0
   10.1216    1.3259    0.0000 C   0  0  0  0  0  0  0  0  0  0  0  0
    8.3896    1.3259    0.0000 C   0  0  0  0  0  0  0  0  0  0  0  0
    3.9317    3.5298    0.0000 C   0  0  0  0  0  0  0  0  0  0  0  0
   11.4239   -0.4904    0.0000 C   0  0  0  0  0  0  0  0  0  0  0  0
    8.3896    2.3259    0.0000 C   0  0  0  0  0  0  0  0  0  0  0  0
   10.1216    2.3259    0.0000 C   0  0  0  0  0  0  0  0  0  0  0  0
    9.2556    2.8259    0.0000 C   0  0  0  0  0  0  0  0  0  0  0  0
    7.4956    0.7912    0.0000 C   0  0  0  0  0  0  0  0  0  0  0  0
    7.4956    2.8606    0.0000 C   0  0  0  0  0  0  0  0  0  0  0  0
    4.9294    3.4620    0.0000 C   0  0  0  0  0  0  0  0  0  0  0  0
    6.5896    1.3051    0.0000 C   0  0  0  0  0  0  0  0  0  0  0  0
    6.5896    2.3467    0.0000 C   0  0  0  0  0  0  0  0  0  0  0  0
   10.9876    2.8259    0.0000 C   0  0  0  0  0  0  0  0  0  0  0  0
    4.1040   -0.7968    0.0000 C   0  0  0  0  0  0  0  0  0  0  0  0
    5.4351   -1.9051    0.0000 C   0  0  0  0  0  0  0  0  0  0  0  0
    3.4641   -1.5653    0.0000 C   0  0  0  0  0  0  0  0  0  0  0  0
    4.7952   -2.6736    0.0000 C   0  0  0  0  0  0  0  0  0  0  0  0
    4.8615    2.4643    0.0000 C   0  0  0  0  0  0  0  0  0  0  0  0
    5.7255    0.8017    0.0000 C   0  0  0  0  0  0  0  0  0  0  0  0
    5.6828    4.1194    0.0000 C   0  0  0  0  0  0  0  0  0  0  0  0
    3.1698   -3.2722    0.0000 C   0  0  0  0  0  0  0  0  0  0  0  0
    5.3521   -0.2175    0.0000 H   0  0  0  0  0  0  0  0  0  0  0  0
    4.8446   -1.5273    0.0000 H   0  0  0  0  0  0  0  0  0  0  0  0
    5.5206   -1.6988    0.0000 H   0  0  0  0  0  0  0  0  0  0  0  0
    3.1455   -0.1152    0.0000 H   0  0  0  0  0  0  0  0  0  0  0  0
    6.6730   -0.9472    0.0000 H   0  0  0  0  0  0  0  0  0  0  0  0
    3.7701    1.1553    0.0000 H   0  0  0  0  0  0  0  0  0  0  0  0
    6.5722   -1.2416    0.0000 H   0  0  0  0  0  0  0  0  0  0  0  0
    7.0612   -0.5138    0.0000 H   0  0  0  0  0  0  0  0  0  0  0  0
    6.3334   -0.0249    0.0000 H   0  0  0  0  0  0  0  0  0  0  0  0
    7.3836   -2.2172    0.0000 H   0  0  0  0  0  0  0  0  0  0  0  0
    2.3833    1.4401    0.0000 H   0  0  0  0  0  0  0  0  0  0  0  0
    2.4894   -0.3443    0.0000 H   0  0  0  0  0  0  0  0  0  0  0  0
    2.2055   -1.1738    0.0000 H   0  0  0  0  0  0  0  0  0  0  0  0
    3.0351   -1.4577    0.0000 H   0  0  0  0  0  0  0  0  0  0  0  0
    7.9156   -0.5289    0.0000 H   0  0  0  0  0  0  0  0  0  0  0  0
    7.4303    0.2014    0.0000 H   0  0  0  0  0  0  0  0  0  0  0  0
    6.7000   -0.2840    0.0000 H   0  0  0  0  0  0  0  0  0  0  0  0
    4.5772   -1.9947    0.0000 H   0  0  0  0  0  0  0  0  0  0  0  0
    1.7272    1.2111    0.0000 H   0  0  0  0  0  0  0  0  0  0  0  0
    1.4433    0.3815    0.0000 H   0  0  0  0  0  0  0  0  0  0  0  0
    2.2728    0.0976    0.0000 H   0  0  0  0  0  0  0  0  0  0  0  0
    8.8804   -0.8857    0.0000 H   0  0  0  0  0  0  0  0  0  0  0  0
    4.6681    1.5954    0.0000 H   0  0  0  0  0  0  0  0  0  0  0  0
    2.4512    2.4378    0.0000 H   0  0  0  0  0  0  0  0  0  0  0  0
    9.7192   -2.6798    0.0000 H   0  0  0  0  0  0  0  0  0  0  0  0
    4.4307    2.2810    0.0000 H   0  0  0  0  0  0  0  0  0  0  0  0
    8.3569   -4.0143    0.0000 H   0  0  0  0  0  0  0  0  0  0  0  0
    9.2172   -3.8454    0.0000 H   0  0  0  0  0  0  0  0  0  0  0  0
    9.0483   -2.9850    0.0000 H   0  0  0  0  0  0  0  0  0  0  0  0
    4.8368   -3.6971    0.0000 H   0  0  0  0  0  0  0  0  0  0  0  0
    4.7773   -4.5719    0.0000 H   0  0  0  0  0  0  0  0  0  0  0  0
    5.6521   -4.6314    0.0000 H   0  0  0  0  0  0  0  0  0  0  0  0
    3.5240    3.9970    0.0000 H   0  0  0  0  0  0  0  0  0  0  0  0
   11.2743   -1.0921    0.0000 H   0  0  0  0  0  0  0  0  0  0  0  0
   12.0256   -0.6401    0.0000 H   0  0  0  0  0  0  0  0  0  0  0  0
   11.5736    0.1113    0.0000 H   0  0  0  0  0  0  0  0  0  0  0  0
    4.3138   -0.2134    0.0000 H   0  0  0  0  0  0  0  0  0  0  0  0
    3.5659   -0.4888    0.0000 H   0  0  0  0  0  0  0  0  0  0  0  0
    5.8354   -2.3786    0.0000 H   0  0  0  0  0  0  0  0  0  0  0  0
    5.9709   -1.5931    0.0000 H   0  0  0  0  0  0  0  0  0  0  0  0
   11.2976    2.2890    0.0000 H   0  0  0  0  0  0  0  0  0  0  0  0
   11.5246    3.1359    0.0000 H   0  0  0  0  0  0  0  0  0  0  0  0
   10.6776    3.3628    0.0000 H   0  0  0  0  0  0  0  0  0  0  0  0
    3.0638   -1.0918    0.0000 H   0  0  0  0  0  0  0  0  0  0  0  0
    2.9283   -1.8773    0.0000 H   0  0  0  0  0  0  0  0  0  0  0  0
    4.5854   -3.2570    0.0000 H   0  0  0  0  0  0  0  0  0  0  0  0
    5.3333   -2.9816    0.0000 H   0  0  0  0  0  0  0  0  0  0  0  0
    6.0570    1.4058    0.0000 H   0  0  0  0  0  0  0  0  0  0  0  0
    5.2490    1.1984    0.0000 H   0  0  0  0  0  0  0  0  0  0  0  0
    6.0905    3.6523    0.0000 H   0  0  0  0  0  0  0  0  0  0  0  0
    6.1500    4.5271    0.0000 H   0  0  0  0  0  0  0  0  0  0  0  0
    5.2752    4.5866    0.0000 H   0  0  0  0  0  0  0  0  0  0  0  0
    9.7925    4.1359    0.0000 H   0  0  0  0  0  0  0  0  0  0  0  0
    2.6934   -2.8754    0.0000 H   0  0  0  0  0  0  0  0  0  0  0  0
    2.7731   -3.7486    0.0000 H   0  0  0  0  0  0  0  0  0  0  0  0
    3.6463   -3.6689    0.0000 H   0  0  0  0  0  0  0  0  0  0  0  0
    8.7565    0.1474    0.0000 H   0  0  0  0  0  0  0  0  0  0  0  0
    8.0477    4.1643    0.0000 H   0  0  0  0  0  0  0  0  0  0  0  0
 19  1  1  1  0  0  0
  1 31  1  0  0  0  0
 18  2  1  6  0  0  0
  2 77  1  0  0  0  0
 22  3  1  6  0  0  0
  3 82  1  0  0  0  0
 24  4  1  6  0  0  0
  4 34  1  0  0  0  0
  5 32  1  0  0  0  0
  5 35  1  0  0  0  0
  6 35  1  0  0  0  0
  6 39  1  0  0  0  0
  7 31  2  0  0  0  0
  8 38  2  0  0  0  0
  9 45  1  0  0  0  0
  9112  1  0  0  0  0
 10 46  1  0  0  0  0
 10116  1  0  0  0  0
 11 47  1  0  0  0  0
 11117  1  0  0  0  0
 12 56  2  0  0  0  0
 13 16  1  0  0  0  0
 13 52  1  0  0  0  0
 13 53  1  0  0  0  0
 14 54  1  0  0  0  0
 14 55  1  0  0  0  0
 14 59  1  0  0  0  0
 15 50  1  0  0  0  0
 15 56  1  0  0  0  0
 15107  1  0  0  0  0
 16 57  2  0  0  0  0
 17 18  1  0  0  0  0
 17 19  1  0  0  0  0
 17 23  1  1  0  0  0
 17 60  1  0  0  0  0
 18 20  1  0  0  0  0
 18 61  1  0  0  0  0
 19 21  1  0  0  0  0
 19 62  1  0  0  0  0
 20 22  1  0  0  0  0
 20 26  1  6  0  0  0
 20 63  1  0  0  0  0
 21 24  1  0  0  0  0
 21 27  1  6  0  0  0
 21 64  1  0  0  0  0
 22 25  1  0  0  0  0
 22 65  1  0  0  0  0
 23 66  1  0  0  0  0
 23 67  1  0  0  0  0
 23 68  1  0  0  0  0
 24 29  1  0  0  0  0
 24 69  1  0  0  0  0
 25 28  1  1  0  0  0
 25 30  1  0  0  0  0
 25 70  1  0  0  0  0
 26 71  1  0  0  0  0
 26 72  1  0  0  0  0
 26 73  1  0  0  0  0
 27 74  1  0  0  0  0
 27 75  1  0  0  0  0
 27 76  1  0  0  0  0
 28 78  1  0  0  0  0
 28 79  1  0  0  0  0
 28 80  1  0  0  0  0
 29 32  2  0  0  0  0
 29 81  1  0  0  0  0
 30 33  2  0  0  0  0
 30 83  1  0  0  0  0
 31 36  1  0  0  0  0
 32 84  1  0  0  0  0
 33 41  1  0  0  0  0
 33 85  1  0  0  0  0
 34 86  1  0  0  0  0
 34 87  1  0  0  0  0
 34 88  1  0  0  0  0
 35 38  1  0  0  0  0
 35 42  1  1  0  0  0
 36 89  1  0  0  0  0
 36 90  1  0  0  0  0
 36 91  1  0  0  0  0
 37 38  1  0  0  0  0
 37 39  2  0  0  0  0
 37 40  1  0  0  0  0
 39 44  1  0  0  0  0
 40 43  1  0  0  0  0
 40 46  2  0  0  0  0
 41 48  2  0  0  0  0
 41 92  1  0  0  0  0
 42 93  1  0  0  0  0
 42 94  1  0  0  0  0
 42 95  1  0  0  0  0
 43 45  1  0  0  0  0
 43 47  2  0  0  0  0
 44 45  2  0  0  0  0
 44 51  1  0  0  0  0
 46 49  1  0  0  0  0
 47 50  1  0  0  0  0
 48 56  1  0  0  0  0
 48 58  1  0  0  0  0
 49 50  2  0  0  0  0
 49 57  1  0  0  0  0
 51100  1  0  0  0  0
 51101  1  0  0  0  0
 51102  1  0  0  0  0
 52 54  1  0  0  0  0
 52 96  1  0  0  0  0
 52 97  1  0  0  0  0
 53 55  1  0  0  0  0
 53 98  1  0  0  0  0
 53 99  1  0  0  0  0
 54103  1  0  0  0  0
 54104  1  0  0  0  0
 55105  1  0  0  0  0
 55106  1  0  0  0  0
 57108  1  0  0  0  0
 58109  1  0  0  0  0
 58110  1  0  0  0  0
 58111  1  0  0  0  0
 59113  1  0  0  0  0
 59114  1  0  0  0  0
 59115  1  0  0  0  0
M  END
> <PUBCHEM_COMPOUND_CID>
135398735

> <PUBCHEM_COMPOUND_CANONICALIZED>
1

> <PUBCHEM_CACTVS_COMPLEXITY>
1620

> <PUBCHEM_CACTVS_HBOND_ACCEPTOR>
15

> <PUBCHEM_CACTVS_HBOND_DONOR>
6

> <PUBCHEM_CACTVS_ROTATABLE_BOND>
5

> <PUBCHEM_CACTVS_SUBSKEYS>
AAADcfB/vAAAAAAAAAAAAAAAAAAAASAAAAA8YIAAAAAAAEjBUAAAHgAYCAAADRzhmAYCzsPABgCoArXzWAKSCAAlIAAYiAFtTNgedzbWtZ+2eWjn7B3c+Yf6/P/O6QADSgAaEADSAAaUADQgAAAAAAAAAA==

> <PUBCHEM_IUPAC_OPENEYE_NAME>
[(7S,9E,11S,12R,13S,14R,15R,16R,17S,18S,19E,21Z)-2,15,17,27,29-pentahydroxy-11-methoxy-3,7,12,14,16,18,22-heptamethyl-26-[(E)-(4-methylpiperazin-1-yl)iminomethyl]-6,23-dioxo-8,30-dioxa-24-azatetracyclo[23.3.1.14,7.05,28]triaconta-1(29),2,4,9,19,21,25,27-octaen-13-yl] acetate

> <PUBCHEM_IUPAC_CAS_NAME>
acetic acid [(7S,9E,11S,12R,13S,14R,15R,16R,17S,18S,19E,21Z)-2,15,17,27,29-pentahydroxy-11-methoxy-3,7,12,14,16,18,22-heptamethyl-26-[(E)-(4-methyl-1-piperazinyl)iminomethyl]-6,23-dioxo-8,30-dioxa-24-azatetracyclo[23.3.1.14,7.05,28]triaconta-1(29),2,4,9,19,21,25,27-octaen-13-yl] ester

> <PUBCHEM_IUPAC_NAME_MARKUP>
[(7<I>S</I>,9<I>E</I>,11<I>S</I>,12<I>R</I>,13<I>S</I>,14<I>R</I>,15<I>R</I>,16<I>R</I>,17<I>S</I>,18<I>S</I>,19<I>E</I>,21<I>Z</I>)-2,15,17,27,29-pentahydroxy-11-methoxy-3,7,12,14,16,18,22-heptamethyl-26-[(<I>E</I>)-(4-methylpiperazin-1-yl)iminomethyl]-6,23-dioxo-8,30-dioxa-24-azatetracyclo[23.3.1.1<SUP>4,7</SUP>.0<SUP>5,28</SUP>]triaconta-1(29),2,4,9,19,21,25,27-octaen-13-yl] acetate

> <PUBCHEM_IUPAC_NAME>
[(7S,9E,11S,12R,13S,14R,15R,16R,17S,18S,19E,21Z)-2,15,17,27,29-pentahydroxy-11-methoxy-3,7,12,14,16,18,22-heptamethyl-26-[(E)-(4-methylpiperazin-1-yl)iminomethyl]-6,23-dioxo-8,30-dioxa-24-azatetracyclo[23.3.1.14,7.05,28]triaconta-1(29),2,4,9,19,21,25,27-octaen-13-yl] acetate

> <PUBCHEM_IUPAC_SYSTEMATIC_NAME>
[(7S,9E,11S,12R,13S,14R,15R,16R,17S,18S,19E,21Z)-11-methoxy-3,7,12,14,16,18,22-heptamethyl-26-[(E)-(4-methylpiperazin-1-yl)iminomethyl]-2,15,17,27,29-pentakis(oxidanyl)-6,23-bis(oxidanylidene)-8,30-dioxa-24-azatetracyclo[23.3.1.14,7.05,28]triaconta-1(29),2,4,9,19,21,25,27-octaen-13-yl] ethanoate

> <PUBCHEM_IUPAC_TRADITIONAL_NAME>
acetic acid [(7S,9E,11S,12R,13S,14R,15R,16R,17S,18S,19E,21Z)-2,15,17,27,29-pentahydroxy-6,23-diketo-11-methoxy-3,7,12,14,16,18,22-heptamethyl-26-[(E)-(4-methylpiperazino)iminomethyl]-8,30-dioxa-24-azatetracyclo[23.3.1.14,7.05,28]triaconta-1(29),2,4,9,19,21,25,27-octaen-13-yl] ester

> <PUBCHEM_IUPAC_INCHI>
InChI=1S/C43H58N4O12/c1-21-12-11-13-22(2)42(55)45-33-28(20-44-47-17-15-46(9)16-18-47)37(52)30-31(38(33)53)36(51)26(6)40-32(30)41(54)43(8,59-40)57-19-14-29(56-10)23(3)39(58-27(7)48)25(5)35(50)24(4)34(21)49/h11-14,19-21,23-25,29,34-35,39,49-53H,15-18H2,1-10H3,(H,45,55)/b12-11+,19-14+,22-13-,44-20+/t21-,23+,24+,25+,29-,34-,35+,39+,43-/m0/s1

> <PUBCHEM_IUPAC_INCHIKEY>
JQXXHWHPUNPDRT-WLSIYKJHSA-N

> <PUBCHEM_XLOGP3_AA>
4.9

> <PUBCHEM_EXACT_MASS>
822.40512330

> <PUBCHEM_MOLECULAR_FORMULA>
C43H58N4O12

> <PUBCHEM_MOLECULAR_WEIGHT>
822.9

> <PUBCHEM_OPENEYE_CAN_SMILES>
CC1C=CC=C(C(=O)NC2=C(C(=C3C(=C2O)C(=C(C4=C3C(=O)C(O4)(OC=CC(C(C(C(C(C(C1O)C)O)C)OC(=O)C)C)OC)C)C)O)O)C=NN5CCN(CC5)C)C

> <PUBCHEM_OPENEYE_ISO_SMILES>
C[C@H]1/C=C/C=C(\C(=O)NC2=C(C(=C3C(=C2O)C(=C(C4=C3C(=O)[C@](O4)(O/C=C/[C@@H]([C@H]([C@H]([C@@H]([C@@H]([C@@H]([C@H]1O)C)O)C)OC(=O)C)C)OC)C)C)O)O)/C=N/N5CCN(CC5)C)/C

> <PUBCHEM_CACTVS_TPSA>
220

> <PUBCHEM_MONOISOTOPIC_WEIGHT>
822.40512330

> <PUBCHEM_TOTAL_CHARGE>
0

> <PUBCHEM_HEAVY_ATOM_COUNT>
59

> <PUBCHEM_ATOM_DEF_STEREO_COUNT>
9

> <PUBCHEM_ATOM_UDEF_STEREO_COUNT>
0

> <PUBCHEM_BOND_DEF_STEREO_COUNT>
4

> <PUBCHEM_BOND_UDEF_STEREO_COUNT>
0

> <PUBCHEM_ISOTOPIC_ATOM_COUNT>
0

> <PUBCHEM_COMPONENT_COUNT>
1

> <PUBCHEM_CACTVS_TAUTO_COUNT>
-1

> <PUBCHEM_COORDINATE_TYPE>
1
5
255

> <PUBCHEM_BONDANNOTATIONS>
19  1  5
17  23  5
18  2  6
20  26  6
21  27  6
25  28  5
22  3  6
35  42  5
37  39  8
37  40  8
39  44  8
24  4  6
40  43  8
40  46  8
43  45  8
43  47  8
44  45  8
46  49  8
47  50  8
49  50  8

$$$$
