9811834
  -OEChem-02142402192D

 59 60  0     1  0  0  0  0  0999 V2000
    3.7320   -0.6900    0.0000 O   0  0  0  0  0  0  0  0  0  0  0  0
    4.5981    0.8100    0.0000 O   0  0  0  0  0  0  0  0  0  0  0  0
    8.9282   -1.6900    0.0000 O   0  0  0  0  0  0  0  0  0  0  0  0
    9.7942   -5.1900    0.0000 O   0  0  0  0  0  0  0  0  0  0  0  0
    8.0622   -5.1900    0.0000 O   0  0  0  0  0  0  0  0  0  0  0  0
    7.1962   -1.6900    0.0000 N   0  0  0  0  0  0  0  0  0  0  0  0
    7.1962   -0.6900    0.0000 C   0  0  1  0  0  0  0  0  0  0  0  0
    6.3301   -0.1900    0.0000 C   0  0  0  0  0  0  0  0  0  0  0  0
    5.4641   -0.6900    0.0000 C   0  0  1  0  0  0  0  0  0  0  0  0
    8.0622   -0.1900    0.0000 C   0  0  0  0  0  0  0  0  0  0  0  0
    8.0622    0.8100    0.0000 C   0  0  0  0  0  0  0  0  0  0  0  0
    5.4641   -1.6900    0.0000 C   0  0  0  0  0  0  0  0  0  0  0  0
    4.5981   -0.1900    0.0000 C   0  0  0  0  0  0  0  0  0  0  0  0
    8.0622   -2.1900    0.0000 C   0  0  0  0  0  0  0  0  0  0  0  0
    8.9282    1.3100    0.0000 C   0  0  0  0  0  0  0  0  0  0  0  0
    7.1962    1.3100    0.0000 C   0  0  0  0  0  0  0  0  0  0  0  0
    8.0622   -3.1900    0.0000 C   0  0  0  0  0  0  0  0  0  0  0  0
    8.0622    2.8100    0.0000 C   0  0  0  0  0  0  0  0  0  0  0  0
    8.9282    2.3100    0.0000 C   0  0  0  0  0  0  0  0  0  0  0  0
    7.1962    2.3100    0.0000 C   0  0  0  0  0  0  0  0  0  0  0  0
    8.9282   -3.6900    0.0000 C   0  0  0  0  0  0  0  0  0  0  0  0
    8.0622    3.8100    0.0000 C   0  0  0  0  0  0  0  0  0  0  0  0
    2.8660   -0.1900    0.0000 C   0  0  0  0  0  0  0  0  0  0  0  0
    7.1962    4.3100    0.0000 C   0  0  0  0  0  0  0  0  0  0  0  0
    8.9282    4.3100    0.0000 C   0  0  0  0  0  0  0  0  0  0  0  0
    8.9282   -4.6900    0.0000 C   0  0  0  0  0  0  0  0  0  0  0  0
    2.0000   -0.6900    0.0000 C   0  0  0  0  0  0  0  0  0  0  0  0
    7.1962    5.3100    0.0000 C   0  0  0  0  0  0  0  0  0  0  0  0
    8.9282    5.3100    0.0000 C   0  0  0  0  0  0  0  0  0  0  0  0
    8.0622    5.8100    0.0000 C   0  0  0  0  0  0  0  0  0  0  0  0
    6.6592   -1.0000    0.0000 H   0  0  0  0  0  0  0  0  0  0  0  0
    6.7287    0.2849    0.0000 H   0  0  0  0  0  0  0  0  0  0  0  0
    5.9316    0.2849    0.0000 H   0  0  0  0  0  0  0  0  0  0  0  0
    6.0010   -1.0000    0.0000 H   0  0  0  0  0  0  0  0  0  0  0  0
    8.2742   -0.7726    0.0000 H   0  0  0  0  0  0  0  0  0  0  0  0
    8.6728   -0.0823    0.0000 H   0  0  0  0  0  0  0  0  0  0  0  0
    6.6592   -2.0000    0.0000 H   0  0  0  0  0  0  0  0  0  0  0  0
    4.8441   -1.6900    0.0000 H   0  0  0  0  0  0  0  0  0  0  0  0
    5.4641   -2.3100    0.0000 H   0  0  0  0  0  0  0  0  0  0  0  0
    6.0841   -1.6900    0.0000 H   0  0  0  0  0  0  0  0  0  0  0  0
    9.4651    1.0000    0.0000 H   0  0  0  0  0  0  0  0  0  0  0  0
    6.6592    1.0000    0.0000 H   0  0  0  0  0  0  0  0  0  0  0  0
    7.4516   -3.0823    0.0000 H   0  0  0  0  0  0  0  0  0  0  0  0
    7.8501   -3.7726    0.0000 H   0  0  0  0  0  0  0  0  0  0  0  0
    9.4651    2.6200    0.0000 H   0  0  0  0  0  0  0  0  0  0  0  0
    6.6592    2.6200    0.0000 H   0  0  0  0  0  0  0  0  0  0  0  0
    9.5388   -3.7977    0.0000 H   0  0  0  0  0  0  0  0  0  0  0  0
    9.1403   -3.1074    0.0000 H   0  0  0  0  0  0  0  0  0  0  0  0
    3.2646    0.2849    0.0000 H   0  0  0  0  0  0  0  0  0  0  0  0
    2.4675    0.2849    0.0000 H   0  0  0  0  0  0  0  0  0  0  0  0
    6.6592    4.0000    0.0000 H   0  0  0  0  0  0  0  0  0  0  0  0
    9.4651    4.0000    0.0000 H   0  0  0  0  0  0  0  0  0  0  0  0
    1.6900   -0.1531    0.0000 H   0  0  0  0  0  0  0  0  0  0  0  0
    1.4631   -1.0000    0.0000 H   0  0  0  0  0  0  0  0  0  0  0  0
    2.3100   -1.2269    0.0000 H   0  0  0  0  0  0  0  0  0  0  0  0
    6.6592    5.6200    0.0000 H   0  0  0  0  0  0  0  0  0  0  0  0
    9.4651    5.6200    0.0000 H   0  0  0  0  0  0  0  0  0  0  0  0
    8.0622    6.4300    0.0000 H   0  0  0  0  0  0  0  0  0  0  0  0
    9.7942   -5.8100    0.0000 H   0  0  0  0  0  0  0  0  0  0  0  0
  1 13  1  0  0  0  0
  1 23  1  0  0  0  0
  2 13  2  0  0  0  0
  3 14  2  0  0  0  0
  4 26  1  0  0  0  0
  4 59  1  0  0  0  0
  5 26  2  0  0  0  0
  7  6  1  1  0  0  0
  6 14  1  0  0  0  0
  6 37  1  0  0  0  0
  7  8  1  0  0  0  0
  7 10  1  0  0  0  0
  7 31  1  0  0  0  0
  8  9  1  0  0  0  0
  8 32  1  0  0  0  0
  8 33  1  0  0  0  0
  9 12  1  1  0  0  0
  9 13  1  0  0  0  0
  9 34  1  0  0  0  0
 10 11  1  0  0  0  0
 10 35  1  0  0  0  0
 10 36  1  0  0  0  0
 11 15  2  0  0  0  0
 11 16  1  0  0  0  0
 12 38  1  0  0  0  0
 12 39  1  0  0  0  0
 12 40  1  0  0  0  0
 14 17  1  0  0  0  0
 15 19  1  0  0  0  0
 15 41  1  0  0  0  0
 16 20  2  0  0  0  0
 16 42  1  0  0  0  0
 17 21  1  0  0  0  0
 17 43  1  0  0  0  0
 17 44  1  0  0  0  0
 18 19  2  0  0  0  0
 18 20  1  0  0  0  0
 18 22  1  0  0  0  0
 19 45  1  0  0  0  0
 20 46  1  0  0  0  0
 21 26  1  0  0  0  0
 21 47  1  0  0  0  0
 21 48  1  0  0  0  0
 22 24  2  0  0  0  0
 22 25  1  0  0  0  0
 23 27  1  0  0  0  0
 23 49  1  0  0  0  0
 23 50  1  0  0  0  0
 24 28  1  0  0  0  0
 24 51  1  0  0  0  0
 25 29  2  0  0  0  0
 25 52  1  0  0  0  0
 27 53  1  0  0  0  0
 27 54  1  0  0  0  0
 27 55  1  0  0  0  0
 28 30  2  0  0  0  0
 28 56  1  0  0  0  0
 29 30  1  0  0  0  0
 29 57  1  0  0  0  0
 30 58  1  0  0  0  0
M  END
> <PUBCHEM_COMPOUND_CID>
9811834

> <PUBCHEM_COMPOUND_CANONICALIZED>
1

> <PUBCHEM_CACTVS_COMPLEXITY>
550

> <PUBCHEM_CACTVS_HBOND_ACCEPTOR>
5

> <PUBCHEM_CACTVS_HBOND_DONOR>
2

> <PUBCHEM_CACTVS_ROTATABLE_BOND>
12

> <PUBCHEM_CACTVS_SUBSKEYS>
AAADceB6OAAAAAAAAAAAAAAAAAAAAAAAAAAwYAAAAAAAAAABQAAAHgAQCAAADSjhmAYyCILABgCIAiHSGAACAAAgAAAIiIEIAIgIIDKAkRGGYAAklgCIiAe/yOCOwAAAAAAAAACAAAAAAAAAAAAAAAAAAA==

> <PUBCHEM_IUPAC_OPENEYE_NAME>
4-[[(1S,3R)-4-ethoxy-3-methyl-4-oxo-1-[(4-phenylphenyl)methyl]butyl]amino]-4-oxo-butanoic acid

> <PUBCHEM_IUPAC_CAS_NAME>
4-[[(2S,4R)-5-ethoxy-4-methyl-5-oxo-1-(4-phenylphenyl)pentan-2-yl]amino]-4-oxobutanoic acid

> <PUBCHEM_IUPAC_NAME_MARKUP>
4-[[(2<I>S</I>,4<I>R</I>)-5-ethoxy-4-methyl-5-oxo-1-(4-phenylphenyl)pentan-2-yl]amino]-4-oxobutanoic acid

> <PUBCHEM_IUPAC_NAME>
4-[[(2S,4R)-5-ethoxy-4-methyl-5-oxo-1-(4-phenylphenyl)pentan-2-yl]amino]-4-oxobutanoic acid

> <PUBCHEM_IUPAC_SYSTEMATIC_NAME>
4-[[(2S,4R)-5-ethoxy-4-methyl-5-oxidanylidene-1-(4-phenylphenyl)pentan-2-yl]amino]-4-oxidanylidene-butanoic acid

> <PUBCHEM_IUPAC_TRADITIONAL_NAME>
4-[[(1S,3R)-4-ethoxy-4-keto-3-methyl-1-(4-phenylbenzyl)butyl]amino]-4-keto-butyric acid

> <PUBCHEM_IUPAC_INCHI>
InChI=1S/C24H29NO5/c1-3-30-24(29)17(2)15-21(25-22(26)13-14-23(27)28)16-18-9-11-20(12-10-18)19-7-5-4-6-8-19/h4-12,17,21H,3,13-16H2,1-2H3,(H,25,26)(H,27,28)/t17-,21+/m1/s1

> <PUBCHEM_IUPAC_INCHIKEY>
PYNXFZCZUAOOQC-UTKZUKDTSA-N

> <PUBCHEM_XLOGP3_AA>
3.7

> <PUBCHEM_EXACT_MASS>
411.20457303

> <PUBCHEM_MOLECULAR_FORMULA>
C24H29NO5

> <PUBCHEM_MOLECULAR_WEIGHT>
411.5

> <PUBCHEM_OPENEYE_CAN_SMILES>
CCOC(=O)C(C)CC(CC1=CC=C(C=C1)C2=CC=CC=C2)NC(=O)CCC(=O)O

> <PUBCHEM_OPENEYE_ISO_SMILES>
CCOC(=O)[C@H](C)C[C@@H](CC1=CC=C(C=C1)C2=CC=CC=C2)NC(=O)CCC(=O)O

> <PUBCHEM_CACTVS_TPSA>
92.7

> <PUBCHEM_MONOISOTOPIC_WEIGHT>
411.20457303

> <PUBCHEM_TOTAL_CHARGE>
0

> <PUBCHEM_HEAVY_ATOM_COUNT>
30

> <PUBCHEM_ATOM_DEF_STEREO_COUNT>
2

> <PUBCHEM_ATOM_UDEF_STEREO_COUNT>
0

> <PUBCHEM_BOND_DEF_STEREO_COUNT>
0

> <PUBCHEM_BOND_UDEF_STEREO_COUNT>
0

> <PUBCHEM_ISOTOPIC_ATOM_COUNT>
0

> <PUBCHEM_COMPONENT_COUNT>
1

> <PUBCHEM_CACTVS_TAUTO_COUNT>
-1

> <PUBCHEM_COORDINATE_TYPE>
1
5
255

> <PUBCHEM_BONDANNOTATIONS>
11  15  8
11  16  8
15  19  8
16  20  8
18  19  8
18  20  8
22  24  8
22  25  8
24  28  8
25  29  8
28  30  8
29  30  8
7  6  5
9  12  5

$$$$
