73952057
  -OEChem-02142402172D

 33 32  0     0  0  0  0  0  0999 V2000
    7.2579    0.0000    0.0000 Mg  0  2  0  0  0  0  0  0  0  0  0  0
    6.2089    5.1200    0.0000 O   0  0  0  0  0  0  0  0  0  0  0  0
    0.5369    3.8700    0.0000 O   0  0  0  0  0  0  0  0  0  0  0  0
    8.8070    6.6200    0.0000 O   0  0  0  0  0  0  0  0  0  0  0  0
    3.1350    5.3700    0.0000 O   0  0  0  0  0  0  0  0  0  0  0  0
    7.0749    6.6200    0.0000 O   0  0  0  0  0  0  0  0  0  0  0  0
    1.4030    5.3700    0.0000 O   0  0  0  0  0  0  0  0  0  0  0  0
    7.9409    5.1200    0.0000 C   0  0  0  0  0  0  0  0  0  0  0  0
    2.2690    3.8700    0.0000 C   0  0  0  0  0  0  0  0  0  0  0  0
    7.0749    4.6200    0.0000 C   0  0  0  0  0  0  0  0  0  0  0  0
    1.4030    3.3700    0.0000 C   0  0  0  0  0  0  0  0  0  0  0  0
    8.8070    4.6200    0.0000 C   0  0  0  0  0  0  0  0  0  0  0  0
    3.1350    3.3700    0.0000 C   0  0  0  0  0  0  0  0  0  0  0  0
    7.0749    3.6200    0.0000 C   0  0  0  0  0  0  0  0  0  0  0  0
    1.4030    2.3700    0.0000 C   0  0  0  0  0  0  0  0  0  0  0  0
    8.8070    3.6200    0.0000 C   0  0  0  0  0  0  0  0  0  0  0  0
    3.1350    2.3700    0.0000 C   0  0  0  0  0  0  0  0  0  0  0  0
    7.9409    3.1200    0.0000 C   0  0  0  0  0  0  0  0  0  0  0  0
    2.2690    1.8700    0.0000 C   0  0  0  0  0  0  0  0  0  0  0  0
    7.9409    6.1200    0.0000 C   0  0  0  0  0  0  0  0  0  0  0  0
    2.2690    4.8700    0.0000 C   0  0  0  0  0  0  0  0  0  0  0  0
    9.3439    4.9300    0.0000 H   0  0  0  0  0  0  0  0  0  0  0  0
    3.6720    3.6800    0.0000 H   0  0  0  0  0  0  0  0  0  0  0  0
    6.5380    3.3100    0.0000 H   0  0  0  0  0  0  0  0  0  0  0  0
    0.8660    2.0600    0.0000 H   0  0  0  0  0  0  0  0  0  0  0  0
    9.3439    3.3100    0.0000 H   0  0  0  0  0  0  0  0  0  0  0  0
    3.6720    2.0600    0.0000 H   0  0  0  0  0  0  0  0  0  0  0  0
    7.9409    2.5000    0.0000 H   0  0  0  0  0  0  0  0  0  0  0  0
    2.2690    1.2500    0.0000 H   0  0  0  0  0  0  0  0  0  0  0  0
    5.6720    4.8100    0.0000 H   0  0  0  0  0  0  0  0  0  0  0  0
    0.0000    3.5600    0.0000 H   0  0  0  0  0  0  0  0  0  0  0  0
    8.8070    7.2400    0.0000 H   0  0  0  0  0  0  0  0  0  0  0  0
    3.1350    5.9900    0.0000 H   0  0  0  0  0  0  0  0  0  0  0  0
  2 10  1  0  0  0  0
  2 30  1  0  0  0  0
  3 11  1  0  0  0  0
  3 31  1  0  0  0  0
  4 20  1  0  0  0  0
  4 32  1  0  0  0  0
  5 21  1  0  0  0  0
  5 33  1  0  0  0  0
  6 20  2  0  0  0  0
  7 21  2  0  0  0  0
  8 10  1  0  0  0  0
  8 12  2  0  0  0  0
  8 20  1  0  0  0  0
  9 11  1  0  0  0  0
  9 13  2  0  0  0  0
  9 21  1  0  0  0  0
 10 14  2  0  0  0  0
 11 15  2  0  0  0  0
 12 16  1  0  0  0  0
 12 22  1  0  0  0  0
 13 17  1  0  0  0  0
 13 23  1  0  0  0  0
 14 18  1  0  0  0  0
 14 24  1  0  0  0  0
 15 19  1  0  0  0  0
 15 25  1  0  0  0  0
 16 18  2  0  0  0  0
 16 26  1  0  0  0  0
 17 19  2  0  0  0  0
 17 27  1  0  0  0  0
 18 28  1  0  0  0  0
 19 29  1  0  0  0  0
M  CHG  1   1   2
M  END
> <PUBCHEM_COMPOUND_CID>
73952057

> <PUBCHEM_COMPOUND_CANONICALIZED>
1

> <PUBCHEM_CACTVS_COMPLEXITY>
133

> <PUBCHEM_CACTVS_HBOND_ACCEPTOR>
6

> <PUBCHEM_CACTVS_HBOND_DONOR>
4

> <PUBCHEM_CACTVS_ROTATABLE_BOND>
2

> <PUBCHEM_CACTVS_SUBSKEYS>
AAADccBwOAAAACAAAAAAAAAAAAAAAAAAAAAwYAAAAAAAAAABQAAAGgAACAAADASAmAAwDoAAAgCIAiDSCAACAAAkIAAIiAEGCMgIJzaCFRKAcUAl4BEImYeIyCCOAAAAAAAIAAAAAAAAABAAAAAAAAAAAA==

> <PUBCHEM_IUPAC_OPENEYE_NAME>
magnesium;2-hydroxybenzoic acid

> <PUBCHEM_IUPAC_CAS_NAME>
magnesium;2-hydroxybenzoic acid

> <PUBCHEM_IUPAC_NAME_MARKUP>
magnesium;2-hydroxybenzoic acid

> <PUBCHEM_IUPAC_NAME>
magnesium;2-hydroxybenzoic acid

> <PUBCHEM_IUPAC_SYSTEMATIC_NAME>
magnesium;2-oxidanylbenzoic acid

> <PUBCHEM_IUPAC_TRADITIONAL_NAME>
magnesium;salicylic acid

> <PUBCHEM_IUPAC_INCHI>
InChI=1S/2C7H6O3.Mg/c2*8-6-4-2-1-3-5(6)7(9)10;/h2*1-4,8H,(H,9,10);/q;;+2

> <PUBCHEM_IUPAC_INCHIKEY>
MQHWFIOJQSCFNM-UHFFFAOYSA-N

> <PUBCHEM_EXACT_MASS>
300.0484298

> <PUBCHEM_MOLECULAR_FORMULA>
C14H12MgO6+2

> <PUBCHEM_MOLECULAR_WEIGHT>
300.55

> <PUBCHEM_OPENEYE_CAN_SMILES>
C1=CC=C(C(=C1)C(=O)O)O.C1=CC=C(C(=C1)C(=O)O)O.[Mg+2]

> <PUBCHEM_OPENEYE_ISO_SMILES>
C1=CC=C(C(=C1)C(=O)O)O.C1=CC=C(C(=C1)C(=O)O)O.[Mg+2]

> <PUBCHEM_CACTVS_TPSA>
115

> <PUBCHEM_MONOISOTOPIC_WEIGHT>
300.0484298

> <PUBCHEM_TOTAL_CHARGE>
2

> <PUBCHEM_HEAVY_ATOM_COUNT>
21

> <PUBCHEM_ATOM_DEF_STEREO_COUNT>
0

> <PUBCHEM_ATOM_UDEF_STEREO_COUNT>
0

> <PUBCHEM_BOND_DEF_STEREO_COUNT>
0

> <PUBCHEM_BOND_UDEF_STEREO_COUNT>
0

> <PUBCHEM_ISOTOPIC_ATOM_COUNT>
0

> <PUBCHEM_COMPONENT_COUNT>
3

> <PUBCHEM_CACTVS_TAUTO_COUNT>
-1

> <PUBCHEM_COORDINATE_TYPE>
1
5
255

> <PUBCHEM_BONDANNOTATIONS>
10  14  8
11  15  8
12  16  8
13  17  8
14  18  8
15  19  8
16  18  8
17  19  8
8  10  8
8  12  8
9  11  8
9  13  8

$$$$
