60151560
  -OEChem-02142402082D

 60 62  0     1  0  0  0  0  0999 V2000
   11.5329   -4.0768    0.0000 S   0  0  0  0  0  0  0  0  0  0  0  0
    8.0786    0.5620    0.0000 O   0  0  0  0  0  0  0  0  0  0  0  0
    3.9470    1.9514    0.0000 O   0  0  0  0  0  0  0  0  0  0  0  0
    2.4608    3.2897    0.0000 O   0  0  0  0  0  0  0  0  0  0  0  0
    3.6197    4.5768    0.0000 O   0  0  0  0  0  0  0  0  0  0  0  0
   10.7238    0.5110    0.0000 N   0  0  0  0  0  0  0  0  0  0  0  0
    9.7728    0.2019    0.0000 C   0  0  0  0  0  0  0  0  0  0  0  0
   11.5329   -0.0768    0.0000 C   0  0  0  0  0  0  0  0  0  0  0  0
   11.0329    1.4620    0.0000 C   0  0  0  0  0  0  0  0  0  0  0  0
    9.0296    0.8711    0.0000 C   0  0  0  0  0  0  0  0  0  0  0  0
   12.3419    0.5110    0.0000 C   0  0  0  0  0  0  0  0  0  0  0  0
   12.0329    1.4620    0.0000 C   0  0  0  0  0  0  0  0  0  0  0  0
   11.5329   -1.0768    0.0000 C   0  0  0  0  0  0  0  0  0  0  0  0
   10.4451    2.2710    0.0000 C   0  0  0  0  0  0  0  0  0  0  0  0
    5.1060    3.2386    0.0000 C   0  0  0  0  0  0  0  0  0  0  0  0
    5.8492    2.5694    0.0000 C   0  0  0  0  0  0  0  0  0  0  0  0
    4.1550    2.9296    0.0000 C   0  0  1  0  0  0  0  0  0  0  0  0
    7.3354    1.2312    0.0000 C   0  0  0  0  0  0  0  0  0  0  0  0
   12.3989   -1.5768    0.0000 C   0  0  0  0  0  0  0  0  0  0  0  0
   10.6668   -1.5768    0.0000 C   0  0  0  0  0  0  0  0  0  0  0  0
    6.8002    2.8785    0.0000 C   0  0  0  0  0  0  0  0  0  0  0  0
    5.6412    1.5913    0.0000 C   0  0  0  0  0  0  0  0  0  0  0  0
    7.5434    2.2093    0.0000 C   0  0  0  0  0  0  0  0  0  0  0  0
    6.3844    0.9222    0.0000 C   0  0  0  0  0  0  0  0  0  0  0  0
   12.3989   -2.5768    0.0000 C   0  0  0  0  0  0  0  0  0  0  0  0
   10.6668   -2.5768    0.0000 C   0  0  0  0  0  0  0  0  0  0  0  0
   11.5329   -3.0768    0.0000 C   0  0  0  0  0  0  0  0  0  0  0  0
    3.4118    3.5987    0.0000 C   0  0  0  0  0  0  0  0  0  0  0  0
    2.9960    1.6424    0.0000 C   0  0  0  0  0  0  0  0  0  0  0  0
    2.7881    0.6642    0.0000 C   0  0  0  0  0  0  0  0  0  0  0  0
   12.3989   -4.5768    0.0000 C   0  0  0  0  0  0  0  0  0  0  0  0
    9.2842   -0.1798    0.0000 H   0  0  0  0  0  0  0  0  0  0  0  0
   10.0639   -0.3455    0.0000 H   0  0  0  0  0  0  0  0  0  0  0  0
    9.5182    1.2528    0.0000 H   0  0  0  0  0  0  0  0  0  0  0  0
    8.7386    1.4185    0.0000 H   0  0  0  0  0  0  0  0  0  0  0  0
   12.9315    0.3194    0.0000 H   0  0  0  0  0  0  0  0  0  0  0  0
   12.3973    1.9636    0.0000 H   0  0  0  0  0  0  0  0  0  0  0  0
   10.9467    2.6354    0.0000 H   0  0  0  0  0  0  0  0  0  0  0  0
   10.0807    2.7726    0.0000 H   0  0  0  0  0  0  0  0  0  0  0  0
    9.9435    1.9066    0.0000 H   0  0  0  0  0  0  0  0  0  0  0  0
    5.5946    3.6203    0.0000 H   0  0  0  0  0  0  0  0  0  0  0  0
    4.8149    3.7860    0.0000 H   0  0  0  0  0  0  0  0  0  0  0  0
    4.6157    2.5147    0.0000 H   0  0  0  0  0  0  0  0  0  0  0  0
   12.9358   -1.2668    0.0000 H   0  0  0  0  0  0  0  0  0  0  0  0
   10.1299   -1.2668    0.0000 H   0  0  0  0  0  0  0  0  0  0  0  0
    6.9291    3.4849    0.0000 H   0  0  0  0  0  0  0  0  0  0  0  0
    5.0516    1.3997    0.0000 H   0  0  0  0  0  0  0  0  0  0  0  0
    8.1330    2.4009    0.0000 H   0  0  0  0  0  0  0  0  0  0  0  0
    6.2555    0.3157    0.0000 H   0  0  0  0  0  0  0  0  0  0  0  0
   12.9358   -2.8868    0.0000 H   0  0  0  0  0  0  0  0  0  0  0  0
   10.1299   -2.8868    0.0000 H   0  0  0  0  0  0  0  0  0  0  0  0
    2.9097    2.2564    0.0000 H   0  0  0  0  0  0  0  0  0  0  0  0
    2.3764    1.6640    0.0000 H   0  0  0  0  0  0  0  0  0  0  0  0
    2.1816    0.7931    0.0000 H   0  0  0  0  0  0  0  0  0  0  0  0
    2.6592    0.0578    0.0000 H   0  0  0  0  0  0  0  0  0  0  0  0
    3.3945    0.5353    0.0000 H   0  0  0  0  0  0  0  0  0  0  0  0
    2.0000    3.7045    0.0000 H   0  0  0  0  0  0  0  0  0  0  0  0
   12.0889   -5.1138    0.0000 H   0  0  0  0  0  0  0  0  0  0  0  0
   12.9358   -4.8868    0.0000 H   0  0  0  0  0  0  0  0  0  0  0  0
   12.7089   -4.0399    0.0000 H   0  0  0  0  0  0  0  0  0  0  0  0
  1 27  1  0  0  0  0
  1 31  1  0  0  0  0
  2 10  1  0  0  0  0
  2 18  1  0  0  0  0
 17  3  1  6  0  0  0
  3 29  1  0  0  0  0
  4 28  1  0  0  0  0
  4 57  1  0  0  0  0
  5 28  2  0  0  0  0
  6  7  1  0  0  0  0
  6  8  1  0  0  0  0
  6  9  1  0  0  0  0
  7 10  1  0  0  0  0
  7 32  1  0  0  0  0
  7 33  1  0  0  0  0
  8 11  2  0  0  0  0
  8 13  1  0  0  0  0
  9 12  2  0  0  0  0
  9 14  1  0  0  0  0
 10 34  1  0  0  0  0
 10 35  1  0  0  0  0
 11 12  1  0  0  0  0
 11 36  1  0  0  0  0
 12 37  1  0  0  0  0
 13 19  2  0  0  0  0
 13 20  1  0  0  0  0
 14 38  1  0  0  0  0
 14 39  1  0  0  0  0
 14 40  1  0  0  0  0
 15 16  1  0  0  0  0
 15 17  1  0  0  0  0
 15 41  1  0  0  0  0
 15 42  1  0  0  0  0
 16 21  2  0  0  0  0
 16 22  1  0  0  0  0
 17 28  1  0  0  0  0
 17 43  1  0  0  0  0
 18 23  2  0  0  0  0
 18 24  1  0  0  0  0
 19 25  1  0  0  0  0
 19 44  1  0  0  0  0
 20 26  2  0  0  0  0
 20 45  1  0  0  0  0
 21 23  1  0  0  0  0
 21 46  1  0  0  0  0
 22 24  2  0  0  0  0
 22 47  1  0  0  0  0
 23 48  1  0  0  0  0
 24 49  1  0  0  0  0
 25 27  2  0  0  0  0
 25 50  1  0  0  0  0
 26 27  1  0  0  0  0
 26 51  1  0  0  0  0
 29 30  1  0  0  0  0
 29 52  1  0  0  0  0
 29 53  1  0  0  0  0
 30 54  1  0  0  0  0
 30 55  1  0  0  0  0
 30 56  1  0  0  0  0
 31 58  1  0  0  0  0
 31 59  1  0  0  0  0
 31 60  1  0  0  0  0
M  END
> <PUBCHEM_COMPOUND_CID>
60151560

> <PUBCHEM_COMPOUND_CANONICALIZED>
1

> <PUBCHEM_CACTVS_COMPLEXITY>
532

> <PUBCHEM_CACTVS_HBOND_ACCEPTOR>
5

> <PUBCHEM_CACTVS_HBOND_DONOR>
1

> <PUBCHEM_CACTVS_ROTATABLE_BOND>
11

> <PUBCHEM_CACTVS_SUBSKEYS>
AAADceB6OABAAAAAAAAAAAAAAAAAAWAAAAAwYAAAAAAAAAAB0AAAHgQACAAADBzh3gayj5MMFgioAyTyTAKCiCAhKjAI2Dl+bJgPJvLksZ+HeCjkwBHb6AeYyOCOMAAAAAAAAABgAAAAAAAAAAAAAAAAAA==

> <PUBCHEM_IUPAC_OPENEYE_NAME>
(2S)-2-ethoxy-3-[4-[2-[2-methyl-5-(4-methylsulfanylphenyl)pyrrol-1-yl]ethoxy]phenyl]propanoic acid

> <PUBCHEM_IUPAC_CAS_NAME>
(2S)-2-ethoxy-3-[4-[2-[2-methyl-5-[4-(methylthio)phenyl]-1-pyrrolyl]ethoxy]phenyl]propanoic acid

> <PUBCHEM_IUPAC_NAME_MARKUP>
(2<I>S</I>)-2-ethoxy-3-[4-[2-[2-methyl-5-(4-methylsulfanylphenyl)pyrrol-1-yl]ethoxy]phenyl]propanoic acid

> <PUBCHEM_IUPAC_NAME>
(2S)-2-ethoxy-3-[4-[2-[2-methyl-5-(4-methylsulfanylphenyl)pyrrol-1-yl]ethoxy]phenyl]propanoic acid

> <PUBCHEM_IUPAC_SYSTEMATIC_NAME>
(2S)-2-ethoxy-3-[4-[2-[2-methyl-5-(4-methylsulfanylphenyl)pyrrol-1-yl]ethoxy]phenyl]propanoic acid

> <PUBCHEM_IUPAC_TRADITIONAL_NAME>
(2S)-2-ethoxy-3-[4-[2-[2-methyl-5-[4-(methylthio)phenyl]pyrrol-1-yl]ethoxy]phenyl]propionic acid

> <PUBCHEM_IUPAC_INCHI>
InChI=1S/C25H29NO4S/c1-4-29-24(25(27)28)17-19-6-10-21(11-7-19)30-16-15-26-18(2)5-14-23(26)20-8-12-22(31-3)13-9-20/h5-14,24H,4,15-17H2,1-3H3,(H,27,28)/t24-/m0/s1

> <PUBCHEM_IUPAC_INCHIKEY>
MRWFZSLZNUJVQW-DEOSSOPVSA-N

> <PUBCHEM_XLOGP3_AA>
4.9

> <PUBCHEM_EXACT_MASS>
439.18172958

> <PUBCHEM_MOLECULAR_FORMULA>
C25H29NO4S

> <PUBCHEM_MOLECULAR_WEIGHT>
439.6

> <PUBCHEM_OPENEYE_CAN_SMILES>
CCOC(CC1=CC=C(C=C1)OCCN2C(=CC=C2C3=CC=C(C=C3)SC)C)C(=O)O

> <PUBCHEM_OPENEYE_ISO_SMILES>
CCO[C@@H](CC1=CC=C(C=C1)OCCN2C(=CC=C2C3=CC=C(C=C3)SC)C)C(=O)O

> <PUBCHEM_CACTVS_TPSA>
86

> <PUBCHEM_MONOISOTOPIC_WEIGHT>
439.18172958

> <PUBCHEM_TOTAL_CHARGE>
0

> <PUBCHEM_HEAVY_ATOM_COUNT>
31

> <PUBCHEM_ATOM_DEF_STEREO_COUNT>
1

> <PUBCHEM_ATOM_UDEF_STEREO_COUNT>
0

> <PUBCHEM_BOND_DEF_STEREO_COUNT>
0

> <PUBCHEM_BOND_UDEF_STEREO_COUNT>
0

> <PUBCHEM_ISOTOPIC_ATOM_COUNT>
0

> <PUBCHEM_COMPONENT_COUNT>
1

> <PUBCHEM_CACTVS_TAUTO_COUNT>
-1

> <PUBCHEM_COORDINATE_TYPE>
1
5
255

> <PUBCHEM_BONDANNOTATIONS>
11  12  8
13  19  8
13  20  8
16  21  8
16  22  8
18  23  8
18  24  8
19  25  8
20  26  8
21  23  8
22  24  8
25  27  8
26  27  8
17  3  6
6  8  8
6  9  8
8  11  8
9  12  8

$$$$
