5360545
  -OEChem-02142402112D

  1  0  0     0  0  0  0  0  0999 V2000
    2.0000    0.0000    0.0000 Na  0  4  0  0  0  0  0  0  0  0  0  0
M  RAD  1   1   2
M  END
> <PUBCHEM_COMPOUND_CID>
5360545

> <PUBCHEM_COMPOUND_CANONICALIZED>
1

> <PUBCHEM_CACTVS_COMPLEXITY>
0

> <PUBCHEM_CACTVS_HBOND_ACCEPTOR>
0

> <PUBCHEM_CACTVS_HBOND_DONOR>
0

> <PUBCHEM_CACTVS_ROTATABLE_BOND>
0

> <PUBCHEM_CACTVS_SUBSKEYS>
AAADcQAAACAAAAAAAAAAAAAAAAAAAAAAAAAAAAAAAAAAAAAAAAAAAAAAAAAAAAAAAAAAAAAAAAAAAAAAAAAAAAAAAAAAAAAAAAAAAAAAAAAAAAAAAAAAAAAAAAAAAAAAAAAAAAAAAAAAAAAAAAAAAAAAAA==

> <PUBCHEM_IUPAC_OPENEYE_NAME>
sodium

> <PUBCHEM_IUPAC_CAS_NAME>
sodium

> <PUBCHEM_IUPAC_NAME_MARKUP>
sodium

> <PUBCHEM_IUPAC_NAME>
sodium

> <PUBCHEM_IUPAC_SYSTEMATIC_NAME>
sodium

> <PUBCHEM_IUPAC_TRADITIONAL_NAME>
sodium

> <PUBCHEM_IUPAC_INCHI>
InChI=1S/Na

> <PUBCHEM_IUPAC_INCHIKEY>
KEAYESYHFKHZAL-UHFFFAOYSA-N

> <PUBCHEM_EXACT_MASS>
22.98976928

> <PUBCHEM_MOLECULAR_FORMULA>
Na

> <PUBCHEM_MOLECULAR_WEIGHT>
22.9897693

> <PUBCHEM_OPENEYE_CAN_SMILES>
[Na]

> <PUBCHEM_OPENEYE_ISO_SMILES>
[Na]

> <PUBCHEM_CACTVS_TPSA>
0

> <PUBCHEM_MONOISOTOPIC_WEIGHT>
22.98976928

> <PUBCHEM_TOTAL_CHARGE>
0

> <PUBCHEM_HEAVY_ATOM_COUNT>
1

> <PUBCHEM_ATOM_DEF_STEREO_COUNT>
0

> <PUBCHEM_ATOM_UDEF_STEREO_COUNT>
0

> <PUBCHEM_BOND_DEF_STEREO_COUNT>
0

> <PUBCHEM_BOND_UDEF_STEREO_COUNT>
0

> <PUBCHEM_ISOTOPIC_ATOM_COUNT>
0

> <PUBCHEM_COMPONENT_COUNT>
1

> <PUBCHEM_CACTVS_TAUTO_COUNT>
-1

> <PUBCHEM_COORDINATE_TYPE>
1
5
255

$$$$
