121825
  -OEChem-02142402202D

 21 21  0     0  0  0  0  0  0999 V2000
    4.4737    4.0000    0.0000 S   0  0  0  0  0  0  0  0  0  0  0  0
    4.4737    0.0000    0.0000 F   0  0  0  0  0  0  0  0  0  0  0  0
    6.8695    2.0000    0.0000 O   0  0  0  0  0  0  0  0  0  0  0  0
    4.4737    5.0000    0.0000 O   0  0  0  0  0  0  0  0  0  0  0  0
    3.4737    4.0000    0.0000 O   0  0  0  0  0  0  0  0  0  0  0  0
    5.4737    4.0000    0.0000 O   0  0  0  0  0  0  0  0  0  0  0  0
    6.2859    2.8047    0.0000 N   0  0  0  0  0  0  0  0  0  0  0  0
    6.2859    1.1953    0.0000 N   0  0  0  0  0  0  0  0  0  0  0  0
    0.5369    2.8100    0.0000 N   0  0  0  0  0  0  0  0  0  0  0  0
    4.4737    3.0000    0.0000 C   0  0  0  0  0  0  0  0  0  0  0  0
    5.3397    2.5000    0.0000 C   0  0  0  0  0  0  0  0  0  0  0  0
    5.3397    1.5000    0.0000 C   0  0  0  0  0  0  0  0  0  0  0  0
    3.6076    2.5000    0.0000 C   0  0  0  0  0  0  0  0  0  0  0  0
    4.4737    1.0000    0.0000 C   0  0  0  0  0  0  0  0  0  0  0  0
    3.6076    1.5000    0.0000 C   0  0  0  0  0  0  0  0  0  0  0  0
    3.0707    2.8100    0.0000 H   0  0  0  0  0  0  0  0  0  0  0  0
    3.0707    1.1900    0.0000 H   0  0  0  0  0  0  0  0  0  0  0  0
    3.9367    5.3100    0.0000 H   0  0  0  0  0  0  0  0  0  0  0  0
    1.0739    3.1200    0.0000 H   0  0  0  0  0  0  0  0  0  0  0  0
    0.0000    3.1200    0.0000 H   0  0  0  0  0  0  0  0  0  0  0  0
    0.5369    2.1900    0.0000 H   0  0  0  0  0  0  0  0  0  0  0  0
  1  4  1  0  0  0  0
  1  5  2  0  0  0  0
  1  6  2  0  0  0  0
  1 10  1  0  0  0  0
  2 14  1  0  0  0  0
  3  7  1  0  0  0  0
  3  8  1  0  0  0  0
  4 18  1  0  0  0  0
  7 11  2  0  0  0  0
  8 12  2  0  0  0  0
  9 19  1  0  0  0  0
  9 20  1  0  0  0  0
  9 21  1  0  0  0  0
 10 11  1  0  0  0  0
 10 13  2  0  0  0  0
 11 12  1  0  0  0  0
 12 14  1  0  0  0  0
 13 15  1  0  0  0  0
 13 16  1  0  0  0  0
 14 15  2  0  0  0  0
 15 17  1  0  0  0  0
M  END
> <PUBCHEM_COMPOUND_CID>
121825

> <PUBCHEM_COMPOUND_CANONICALIZED>
1

> <PUBCHEM_CACTVS_COMPLEXITY>
316

> <PUBCHEM_CACTVS_HBOND_ACCEPTOR>
8

> <PUBCHEM_CACTVS_HBOND_DONOR>
2

> <PUBCHEM_CACTVS_ROTATABLE_BOND>
1

> <PUBCHEM_CACTVS_SUBSKEYS>
AAADcYBjOQBAAAAAAAAAAAAAAAAAAWAAAAAwAAAAAAAAAFgB8AAAHQQUCAAACAiBVggwwbAQAIKhASRiQnDCAEQgEAAomDwgVJoIYKKAkJGAIARggIAIyAcQAAAAAAAAACAAASAAAAAAQAACQAAAAAAAAA==

> <PUBCHEM_IUPAC_OPENEYE_NAME>
ammonia;7-fluoro-2,1,3-benzoxadiazole-4-sulfonic acid

> <PUBCHEM_IUPAC_CAS_NAME>
ammonia;7-fluoro-2,1,3-benzoxadiazole-4-sulfonic acid

> <PUBCHEM_IUPAC_NAME_MARKUP>
azane;7-fluoro-2,1,3-benzoxadiazole-4-sulfonic acid

> <PUBCHEM_IUPAC_NAME>
azane;7-fluoro-2,1,3-benzoxadiazole-4-sulfonic acid

> <PUBCHEM_IUPAC_SYSTEMATIC_NAME>
azane;7-fluoranyl-2,1,3-benzoxadiazole-4-sulfonic acid

> <PUBCHEM_IUPAC_TRADITIONAL_NAME>
ammonia;7-fluorobenzofurazan-4-sulfonic acid

> <PUBCHEM_IUPAC_INCHI>
InChI=1S/C6H3FN2O4S.H3N/c7-3-1-2-4(14(10,11)12)6-5(3)8-13-9-6;/h1-2H,(H,10,11,12);1H3

> <PUBCHEM_IUPAC_INCHIKEY>
JXLHNMVSKXFWAO-UHFFFAOYSA-N

> <PUBCHEM_EXACT_MASS>
235.00630502

> <PUBCHEM_MOLECULAR_FORMULA>
C6H6FN3O4S

> <PUBCHEM_MOLECULAR_WEIGHT>
235.20

> <PUBCHEM_OPENEYE_CAN_SMILES>
C1=C(C2=NON=C2C(=C1)S(=O)(=O)O)F.N

> <PUBCHEM_OPENEYE_ISO_SMILES>
C1=C(C2=NON=C2C(=C1)S(=O)(=O)O)F.N

> <PUBCHEM_CACTVS_TPSA>
103

> <PUBCHEM_MONOISOTOPIC_WEIGHT>
235.00630502

> <PUBCHEM_TOTAL_CHARGE>
0

> <PUBCHEM_HEAVY_ATOM_COUNT>
15

> <PUBCHEM_ATOM_DEF_STEREO_COUNT>
0

> <PUBCHEM_ATOM_UDEF_STEREO_COUNT>
0

> <PUBCHEM_BOND_DEF_STEREO_COUNT>
0

> <PUBCHEM_BOND_UDEF_STEREO_COUNT>
0

> <PUBCHEM_ISOTOPIC_ATOM_COUNT>
0

> <PUBCHEM_COMPONENT_COUNT>
2

> <PUBCHEM_CACTVS_TAUTO_COUNT>
-1

> <PUBCHEM_COORDINATE_TYPE>
1
5
255

> <PUBCHEM_BONDANNOTATIONS>
10  11  8
10  13  8
11  12  8
12  14  8
13  15  8
14  15  8
3  7  8
3  8  8
7  11  8
8  12  8

$$$$
