119420
  -OEChem-02142402142D

 87 90  0     1  0  0  0  0  0999 V2000
   15.6315    4.8060    0.0000 S   0  0  0  0  0  0  0  0  0  0  0  0
    7.0628   -0.7330    0.0000 O   0  0  0  0  0  0  0  0  0  0  0  0
    7.9506   -5.2644    0.0000 O   0  0  0  0  0  0  0  0  0  0  0  0
    2.5357   -5.2853    0.0000 O   0  0  0  0  0  0  0  0  0  0  0  0
   12.1212   -0.3590    0.0000 O   0  0  0  0  0  0  0  0  0  0  0  0
   12.3854    3.2368    0.0000 O   0  0  0  0  0  0  0  0  0  0  0  0
   15.9422    5.7565    0.0000 O   0  0  0  0  0  0  0  0  0  0  0  0
   16.5821    4.4953    0.0000 O   0  0  0  0  0  0  0  0  0  0  0  0
   14.6810    5.1167    0.0000 O   0  0  0  0  0  0  0  0  0  0  0  0
   11.7640    1.3358    0.0000 N   0  0  0  0  0  0  0  0  0  0  0  0
   14.0317    2.6987    0.0000 N   0  0  0  0  0  0  0  0  0  0  0  0
    7.9288   -2.2330    0.0000 C   0  0  1  0  0  0  0  0  0  0  0  0
    7.9288   -3.2330    0.0000 C   0  0  2  0  0  0  0  0  0  0  0  0
    7.0628   -3.7330    0.0000 C   0  0  1  0  0  0  0  0  0  0  0  0
    6.1968   -3.2330    0.0000 C   0  0  1  0  0  0  0  0  0  0  0  0
    5.2868   -3.7398    0.0000 C   0  0  2  0  0  0  0  0  0  0  0  0
    8.8750   -1.9282    0.0000 C   0  0  2  0  0  0  0  0  0  0  0  0
    7.0628   -1.7330    0.0000 C   0  0  2  0  0  0  0  0  0  0  0  0
    6.1968   -2.2330    0.0000 C   0  0  0  0  0  0  0  0  0  0  0  0
    5.2787   -4.7814    0.0000 C   0  0  2  0  0  0  0  0  0  0  0  0
    8.8750   -3.5377    0.0000 C   0  0  0  0  0  0  0  0  0  0  0  0
    7.0789   -4.7745    0.0000 C   0  0  1  0  0  0  0  0  0  0  0  0
    9.4586   -2.7330    0.0000 C   0  0  0  0  0  0  0  0  0  0  0  0
    6.1808   -5.3022    0.0000 C   0  0  0  0  0  0  0  0  0  0  0  0
    4.3599   -3.1757    0.0000 C   0  0  0  0  0  0  0  0  0  0  0  0
    7.9288   -1.2330    0.0000 C   0  0  0  0  0  0  0  0  0  0  0  0
    9.1857   -0.9777    0.0000 C   0  0  1  0  0  0  0  0  0  0  0  0
    4.3433   -5.3311    0.0000 C   0  0  0  0  0  0  0  0  0  0  0  0
    5.2945   -2.7398    0.0000 C   0  0  0  0  0  0  0  0  0  0  0  0
    3.4120   -3.7037    0.0000 C   0  0  0  0  0  0  0  0  0  0  0  0
    3.4037   -4.7886    0.0000 C   0  0  1  0  0  0  0  0  0  0  0  0
   10.1642   -0.7715    0.0000 C   0  0  0  0  0  0  0  0  0  0  0  0
    8.5179   -0.2334    0.0000 C   0  0  0  0  0  0  0  0  0  0  0  0
   10.4749    0.1790    0.0000 C   0  0  0  0  0  0  0  0  0  0  0  0
   11.4534    0.3853    0.0000 C   0  0  0  0  0  0  0  0  0  0  0  0
   12.7425    1.5420    0.0000 C   0  0  0  0  0  0  0  0  0  0  0  0
   13.0532    2.4925    0.0000 C   0  0  0  0  0  0  0  0  0  0  0  0
   14.3424    3.6493    0.0000 C   0  0  0  0  0  0  0  0  0  0  0  0
   15.3209    3.8555    0.0000 C   0  0  0  0  0  0  0  0  0  0  0  0
    8.0188   -4.0782    0.0000 H   0  0  0  0  0  0  0  0  0  0  0  0
    7.8022   -4.1523    0.0000 H   0  0  0  0  0  0  0  0  0  0  0  0
    6.9329   -2.8080    0.0000 H   0  0  0  0  0  0  0  0  0  0  0  0
    9.7148   -1.7963    0.0000 H   0  0  0  0  0  0  0  0  0  0  0  0
    6.5259   -1.4230    0.0000 H   0  0  0  0  0  0  0  0  0  0  0  0
    5.9847   -1.6503    0.0000 H   0  0  0  0  0  0  0  0  0  0  0  0
    5.5862   -2.3406    0.0000 H   0  0  0  0  0  0  0  0  0  0  0  0
    5.2820   -5.6314    0.0000 H   0  0  0  0  0  0  0  0  0  0  0  0
    8.6240   -4.1046    0.0000 H   0  0  0  0  0  0  0  0  0  0  0  0
    9.4124   -3.8469    0.0000 H   0  0  0  0  0  0  0  0  0  0  0  0
    7.6116   -4.4572    0.0000 H   0  0  0  0  0  0  0  0  0  0  0  0
    9.9195   -3.1477    0.0000 H   0  0  0  0  0  0  0  0  0  0  0  0
    9.9195   -2.3182    0.0000 H   0  0  0  0  0  0  0  0  0  0  0  0
    5.7835   -5.7782    0.0000 H   0  0  0  0  0  0  0  0  0  0  0  0
    6.5818   -5.7751    0.0000 H   0  0  0  0  0  0  0  0  0  0  0  0
    4.7681   -2.7091    0.0000 H   0  0  0  0  0  0  0  0  0  0  0  0
    3.9700   -2.6937    0.0000 H   0  0  0  0  0  0  0  0  0  0  0  0
    8.5488   -1.2330    0.0000 H   0  0  0  0  0  0  0  0  0  0  0  0
    7.9288   -0.6130    0.0000 H   0  0  0  0  0  0  0  0  0  0  0  0
    7.3088   -1.2330    0.0000 H   0  0  0  0  0  0  0  0  0  0  0  0
    9.3783   -0.3884    0.0000 H   0  0  0  0  0  0  0  0  0  0  0  0
    3.9460   -5.8071    0.0000 H   0  0  0  0  0  0  0  0  0  0  0  0
    4.7443   -5.8040    0.0000 H   0  0  0  0  0  0  0  0  0  0  0  0
    5.9145   -2.7446    0.0000 H   0  0  0  0  0  0  0  0  0  0  0  0
    5.2993   -2.1198    0.0000 H   0  0  0  0  0  0  0  0  0  0  0  0
    4.6745   -2.7351    0.0000 H   0  0  0  0  0  0  0  0  0  0  0  0
    3.2075   -3.1184    0.0000 H   0  0  0  0  0  0  0  0  0  0  0  0
    2.8004   -3.8050    0.0000 H   0  0  0  0  0  0  0  0  0  0  0  0
    3.4025   -5.4086    0.0000 H   0  0  0  0  0  0  0  0  0  0  0  0
    6.5259   -0.4230    0.0000 H   0  0  0  0  0  0  0  0  0  0  0  0
   10.1848   -1.3911    0.0000 H   0  0  0  0  0  0  0  0  0  0  0  0
   10.7780   -0.8588    0.0000 H   0  0  0  0  0  0  0  0  0  0  0  0
    7.9578   -5.8844    0.0000 H   0  0  0  0  0  0  0  0  0  0  0  0
    8.9793    0.1807    0.0000 H   0  0  0  0  0  0  0  0  0  0  0  0
    8.1038    0.2281    0.0000 H   0  0  0  0  0  0  0  0  0  0  0  0
    8.0564   -0.6475    0.0000 H   0  0  0  0  0  0  0  0  0  0  0  0
    2.0000   -4.9732    0.0000 H   0  0  0  0  0  0  0  0  0  0  0  0
   10.4543    0.7987    0.0000 H   0  0  0  0  0  0  0  0  0  0  0  0
    9.8611    0.2664    0.0000 H   0  0  0  0  0  0  0  0  0  0  0  0
   11.3500    1.7972    0.0000 H   0  0  0  0  0  0  0  0  0  0  0  0
   12.7631    0.9223    0.0000 H   0  0  0  0  0  0  0  0  0  0  0  0
   13.3564    1.4546    0.0000 H   0  0  0  0  0  0  0  0  0  0  0  0
   14.4458    2.2373    0.0000 H   0  0  0  0  0  0  0  0  0  0  0  0
   14.3218    4.2689    0.0000 H   0  0  0  0  0  0  0  0  0  0  0  0
   13.7286    3.7366    0.0000 H   0  0  0  0  0  0  0  0  0  0  0  0
   15.3414    3.2358    0.0000 H   0  0  0  0  0  0  0  0  0  0  0  0
   15.9347    3.7681    0.0000 H   0  0  0  0  0  0  0  0  0  0  0  0
   16.5489    5.8844    0.0000 H   0  0  0  0  0  0  0  0  0  0  0  0
  1  7  1  0  0  0  0
  1  8  2  0  0  0  0
  1  9  2  0  0  0  0
  1 39  1  0  0  0  0
 18  2  1  6  0  0  0
  2 69  1  0  0  0  0
 22  3  1  6  0  0  0
  3 72  1  0  0  0  0
 31  4  1  6  0  0  0
  4 76  1  0  0  0  0
  5 35  2  0  0  0  0
  6 37  2  0  0  0  0
  7 87  1  0  0  0  0
 10 35  1  0  0  0  0
 10 36  1  0  0  0  0
 10 79  1  0  0  0  0
 11 37  1  0  0  0  0
 11 38  1  0  0  0  0
 11 82  1  0  0  0  0
 12 13  1  0  0  0  0
 12 17  1  0  0  0  0
 12 18  1  0  0  0  0
 12 26  1  1  0  0  0
 13 14  1  0  0  0  0
 13 21  1  0  0  0  0
 13 40  1  6  0  0  0
 14 15  1  0  0  0  0
 14 22  1  0  0  0  0
 14 41  1  1  0  0  0
 15 16  1  0  0  0  0
 15 19  1  0  0  0  0
 15 42  1  6  0  0  0
 16 20  1  0  0  0  0
 16 25  1  0  0  0  0
 16 29  1  1  0  0  0
 17 23  1  0  0  0  0
 17 27  1  0  0  0  0
 17 43  1  6  0  0  0
 18 19  1  0  0  0  0
 18 44  1  0  0  0  0
 19 45  1  0  0  0  0
 19 46  1  0  0  0  0
 20 24  1  0  0  0  0
 20 28  1  0  0  0  0
 20 47  1  1  0  0  0
 21 23  1  0  0  0  0
 21 48  1  0  0  0  0
 21 49  1  0  0  0  0
 22 24  1  0  0  0  0
 22 50  1  0  0  0  0
 23 51  1  0  0  0  0
 23 52  1  0  0  0  0
 24 53  1  0  0  0  0
 24 54  1  0  0  0  0
 25 30  1  0  0  0  0
 25 55  1  0  0  0  0
 25 56  1  0  0  0  0
 26 57  1  0  0  0  0
 26 58  1  0  0  0  0
 26 59  1  0  0  0  0
 27 32  1  0  0  0  0
 27 33  1  6  0  0  0
 27 60  1  0  0  0  0
 28 31  1  0  0  0  0
 28 61  1  0  0  0  0
 28 62  1  0  0  0  0
 29 63  1  0  0  0  0
 29 64  1  0  0  0  0
 29 65  1  0  0  0  0
 30 31  1  0  0  0  0
 30 66  1  0  0  0  0
 30 67  1  0  0  0  0
 31 68  1  0  0  0  0
 32 34  1  0  0  0  0
 32 70  1  0  0  0  0
 32 71  1  0  0  0  0
 33 73  1  0  0  0  0
 33 74  1  0  0  0  0
 33 75  1  0  0  0  0
 34 35  1  0  0  0  0
 34 77  1  0  0  0  0
 34 78  1  0  0  0  0
 36 37  1  0  0  0  0
 36 80  1  0  0  0  0
 36 81  1  0  0  0  0
 38 39  1  0  0  0  0
 38 83  1  0  0  0  0
 38 84  1  0  0  0  0
 39 85  1  0  0  0  0
 39 86  1  0  0  0  0
M  END
> <PUBCHEM_COMPOUND_CID>
119420

> <PUBCHEM_COMPOUND_CANONICALIZED>
1

> <PUBCHEM_CACTVS_COMPLEXITY>
1020

> <PUBCHEM_CACTVS_HBOND_ACCEPTOR>
8

> <PUBCHEM_CACTVS_HBOND_DONOR>
6

> <PUBCHEM_CACTVS_ROTATABLE_BOND>
9

> <PUBCHEM_CACTVS_SUBSKEYS>
AAADcfB7PABAAAAAAAAAAAAAAAAAAYAAAAAwYMAAAAAAAGDAAAAAHgQQCAAADxTlwAaCAALAAoIIAAEQEHBAAAAAAAAAAIGIAAAAUBIAgCAUQAAEFgCAAAGY6PSPgAAAAAAAAADAAAYAADAAAQAACAAAAA==

> <PUBCHEM_IUPAC_OPENEYE_NAME>
2-[[2-[[(4R)-4-[(3R,5S,7R,8R,9S,10S,12S,13R,14S,17R)-3,7,12-trihydroxy-10,13-dimethyl-2,3,4,5,6,7,8,9,11,12,14,15,16,17-tetradecahydro-1H-cyclopenta[a]phenanthren-17-yl]pentanoyl]amino]acetyl]amino]ethanesulfonic acid

> <PUBCHEM_IUPAC_CAS_NAME>
2-[[1-oxo-2-[[(4R)-1-oxo-4-[(3R,5S,7R,8R,9S,10S,12S,13R,14S,17R)-3,7,12-trihydroxy-10,13-dimethyl-2,3,4,5,6,7,8,9,11,12,14,15,16,17-tetradecahydro-1H-cyclopenta[a]phenanthren-17-yl]pentyl]amino]ethyl]amino]ethanesulfonic acid

> <PUBCHEM_IUPAC_NAME_MARKUP>
2-[[2-[[(4<I>R</I>)-4-[(3<I>R</I>,5<I>S</I>,7<I>R</I>,8<I>R</I>,9<I>S</I>,10<I>S</I>,12<I>S</I>,13<I>R</I>,14<I>S</I>,17<I>R</I>)-3,7,12-trihydroxy-10,13-dimethyl-2,3,4,5,6,7,8,9,11,12,14,15,16,17-tetradecahydro-1<I>H</I>-cyclopenta[a]phenanthren-17-yl]pentanoyl]amino]acetyl]amino]ethanesulfonic acid

> <PUBCHEM_IUPAC_NAME>
2-[[2-[[(4R)-4-[(3R,5S,7R,8R,9S,10S,12S,13R,14S,17R)-3,7,12-trihydroxy-10,13-dimethyl-2,3,4,5,6,7,8,9,11,12,14,15,16,17-tetradecahydro-1H-cyclopenta[a]phenanthren-17-yl]pentanoyl]amino]acetyl]amino]ethanesulfonic acid

> <PUBCHEM_IUPAC_SYSTEMATIC_NAME>
2-[2-[[(4R)-4-[(3R,5S,7R,8R,9S,10S,12S,13R,14S,17R)-10,13-dimethyl-3,7,12-tris(oxidanyl)-2,3,4,5,6,7,8,9,11,12,14,15,16,17-tetradecahydro-1H-cyclopenta[a]phenanthren-17-yl]pentanoyl]amino]ethanoylamino]ethanesulfonic acid

> <PUBCHEM_IUPAC_TRADITIONAL_NAME>
2-[[2-[[(4R)-4-[(3R,5S,7R,8R,9S,10S,12S,13R,14S,17R)-3,7,12-trihydroxy-10,13-dimethyl-2,3,4,5,6,7,8,9,11,12,14,15,16,17-tetradecahydro-1H-cyclopenta[a]phenanthren-17-yl]pentanoyl]amino]acetyl]amino]ethanesulfonic acid

> <PUBCHEM_IUPAC_INCHI>
InChI=1S/C28H48N2O8S/c1-16(4-7-24(34)30-15-25(35)29-10-11-39(36,37)38)19-5-6-20-26-21(14-23(33)28(19,20)3)27(2)9-8-18(31)12-17(27)13-22(26)32/h16-23,26,31-33H,4-15H2,1-3H3,(H,29,35)(H,30,34)(H,36,37,38)/t16-,17+,18-,19-,20+,21+,22-,23+,26+,27+,28-/m1/s1

> <PUBCHEM_IUPAC_INCHIKEY>
URJQSMIFSMHWSP-VVHBOOHCSA-N

> <PUBCHEM_XLOGP3_AA>
1.6

> <PUBCHEM_EXACT_MASS>
572.31313767

> <PUBCHEM_MOLECULAR_FORMULA>
C28H48N2O8S

> <PUBCHEM_MOLECULAR_WEIGHT>
572.8

> <PUBCHEM_OPENEYE_CAN_SMILES>
CC(CCC(=O)NCC(=O)NCCS(=O)(=O)O)C1CCC2C1(C(CC3C2C(CC4C3(CCC(C4)O)C)O)O)C

> <PUBCHEM_OPENEYE_ISO_SMILES>
C[C@H](CCC(=O)NCC(=O)NCCS(=O)(=O)O)[C@H]1CC[C@@H]2[C@@]1([C@H](C[C@H]3[C@H]2[C@@H](C[C@H]4[C@@]3(CC[C@H](C4)O)C)O)O)C

> <PUBCHEM_CACTVS_TPSA>
182

> <PUBCHEM_MONOISOTOPIC_WEIGHT>
572.31313767

> <PUBCHEM_TOTAL_CHARGE>
0

> <PUBCHEM_HEAVY_ATOM_COUNT>
39

> <PUBCHEM_ATOM_DEF_STEREO_COUNT>
11

> <PUBCHEM_ATOM_UDEF_STEREO_COUNT>
0

> <PUBCHEM_BOND_DEF_STEREO_COUNT>
0

> <PUBCHEM_BOND_UDEF_STEREO_COUNT>
0

> <PUBCHEM_ISOTOPIC_ATOM_COUNT>
0

> <PUBCHEM_COMPONENT_COUNT>
1

> <PUBCHEM_CACTVS_TAUTO_COUNT>
4

> <PUBCHEM_COORDINATE_TYPE>
1
5
255

> <PUBCHEM_BONDANNOTATIONS>
12  26  5
13  40  6
14  41  5
15  42  6
16  29  5
17  43  6
18  2  6
20  47  5
27  33  6
22  3  6
31  4  6

$$$$
