216237
  -OEChem-02142402072D

 57 60  0     1  0  0  0  0  0999 V2000
   10.3548    3.8287    0.0000 Cl  0  0  0  0  0  0  0  0  0  0  0  0
    7.1314    4.9030    0.0000 O   0  0  0  0  0  0  0  0  0  0  0  0
    8.0869    0.4114    0.0000 O   0  0  0  0  0  0  0  0  0  0  0  0
    5.3772   -3.2842    0.0000 O   0  0  0  0  0  0  0  0  0  0  0  0
    6.9088    1.6811    0.0000 N   0  0  0  0  0  0  0  0  0  0  0  0
    4.1992   -2.0145    0.0000 N   0  0  0  0  0  0  0  0  0  0  0  0
    5.9339    3.7056    0.0000 C   0  0  0  0  0  0  0  0  0  0  0  0
    5.5000    2.8046    0.0000 C   0  0  0  0  0  0  0  0  0  0  0  0
    6.9088    3.9281    0.0000 C   0  0  3  0  0  0  0  0  0  0  0  0
    5.9339    1.9036    0.0000 C   0  0  0  0  0  0  0  0  0  0  0  0
    7.6907    3.3046    0.0000 C   0  0  0  0  0  0  0  0  0  0  0  0
    7.6907    2.3046    0.0000 C   0  0  0  0  0  0  0  0  0  0  0  0
    7.1314    0.7062    0.0000 C   0  0  0  0  0  0  0  0  0  0  0  0
    8.5846    3.8392    0.0000 C   0  0  0  0  0  0  0  0  0  0  0  0
    8.5846    1.7699    0.0000 C   0  0  0  0  0  0  0  0  0  0  0  0
    6.3983    0.0260    0.0000 C   0  0  0  0  0  0  0  0  0  0  0  0
    9.4907    3.3254    0.0000 C   0  0  0  0  0  0  0  0  0  0  0  0
    9.4907    2.2838    0.0000 C   0  0  0  0  0  0  0  0  0  0  0  0
    5.4427    0.3208    0.0000 C   0  0  0  0  0  0  0  0  0  0  0  0
    6.6208   -0.9489    0.0000 C   0  0  0  0  0  0  0  0  0  0  0  0
    4.7097   -0.3594    0.0000 C   0  0  0  0  0  0  0  0  0  0  0  0
    4.9322   -1.3343    0.0000 C   0  0  0  0  0  0  0  0  0  0  0  0
    5.8878   -1.6291    0.0000 C   0  0  0  0  0  0  0  0  0  0  0  0
    5.2202    1.2957    0.0000 C   0  0  0  0  0  0  0  0  0  0  0  0
    4.4217   -2.9894    0.0000 C   0  0  0  0  0  0  0  0  0  0  0  0
    3.6886   -3.6696    0.0000 C   0  0  0  0  0  0  0  0  0  0  0  0
    2.7330   -3.3749    0.0000 C   0  0  0  0  0  0  0  0  0  0  0  0
    3.9112   -4.6445    0.0000 C   0  0  0  0  0  0  0  0  0  0  0  0
    2.0000   -4.0550    0.0000 C   0  0  0  0  0  0  0  0  0  0  0  0
    2.5105   -2.3999    0.0000 C   0  0  0  0  0  0  0  0  0  0  0  0
    3.1781   -5.3247    0.0000 C   0  0  0  0  0  0  0  0  0  0  0  0
    2.2225   -5.0300    0.0000 C   0  0  0  0  0  0  0  0  0  0  0  0
    5.9339    4.3256    0.0000 H   0  0  0  0  0  0  0  0  0  0  0  0
    5.3295    3.8435    0.0000 H   0  0  0  0  0  0  0  0  0  0  0  0
    5.0153    3.1912    0.0000 H   0  0  0  0  0  0  0  0  0  0  0  0
    5.0153    2.4180    0.0000 H   0  0  0  0  0  0  0  0  0  0  0  0
    6.4704    4.3665    0.0000 H   0  0  0  0  0  0  0  0  0  0  0  0
    5.3295    1.7657    0.0000 H   0  0  0  0  0  0  0  0  0  0  0  0
    5.9339    1.2836    0.0000 H   0  0  0  0  0  0  0  0  0  0  0  0
    8.5774    4.4592    0.0000 H   0  0  0  0  0  0  0  0  0  0  0  0
    8.5774    1.1500    0.0000 H   0  0  0  0  0  0  0  0  0  0  0  0
    6.6769    5.3247    0.0000 H   0  0  0  0  0  0  0  0  0  0  0  0
   10.0264    1.9717    0.0000 H   0  0  0  0  0  0  0  0  0  0  0  0
    7.2133   -1.1317    0.0000 H   0  0  0  0  0  0  0  0  0  0  0  0
    4.1172   -0.1767    0.0000 H   0  0  0  0  0  0  0  0  0  0  0  0
    6.0257   -2.2336    0.0000 H   0  0  0  0  0  0  0  0  0  0  0  0
    5.8247    1.4336    0.0000 H   0  0  0  0  0  0  0  0  0  0  0  0
    5.0822    1.9001    0.0000 H   0  0  0  0  0  0  0  0  0  0  0  0
    4.6158    1.1577    0.0000 H   0  0  0  0  0  0  0  0  0  0  0  0
    3.6067   -1.8318    0.0000 H   0  0  0  0  0  0  0  0  0  0  0  0
    4.5036   -4.8273    0.0000 H   0  0  0  0  0  0  0  0  0  0  0  0
    1.4075   -3.8723    0.0000 H   0  0  0  0  0  0  0  0  0  0  0  0
    3.1150   -2.2620    0.0000 H   0  0  0  0  0  0  0  0  0  0  0  0
    2.3726   -1.7955    0.0000 H   0  0  0  0  0  0  0  0  0  0  0  0
    1.9061   -2.5379    0.0000 H   0  0  0  0  0  0  0  0  0  0  0  0
    3.3161   -5.9292    0.0000 H   0  0  0  0  0  0  0  0  0  0  0  0
    1.7680   -5.4517    0.0000 H   0  0  0  0  0  0  0  0  0  0  0  0
  1 17  1  0  0  0  0
  2  9  1  0  0  0  0
  2 42  1  0  0  0  0
  3 13  2  0  0  0  0
  4 25  2  0  0  0  0
  5 10  1  0  0  0  0
  5 12  1  0  0  0  0
  5 13  1  0  0  0  0
  6 22  1  0  0  0  0
  6 25  1  0  0  0  0
  6 50  1  0  0  0  0
  7  8  1  0  0  0  0
  7  9  1  0  0  0  0
  7 33  1  0  0  0  0
  7 34  1  0  0  0  0
  8 10  1  0  0  0  0
  8 35  1  0  0  0  0
  8 36  1  0  0  0  0
  9 11  1  0  0  0  0
  9 37  1  0  0  0  0
 10 38  1  0  0  0  0
 10 39  1  0  0  0  0
 11 12  2  0  0  0  0
 11 14  1  0  0  0  0
 12 15  1  0  0  0  0
 13 16  1  0  0  0  0
 14 17  2  0  0  0  0
 14 40  1  0  0  0  0
 15 18  2  0  0  0  0
 15 41  1  0  0  0  0
 16 19  2  0  0  0  0
 16 20  1  0  0  0  0
 17 18  1  0  0  0  0
 18 43  1  0  0  0  0
 19 21  1  0  0  0  0
 19 24  1  0  0  0  0
 20 23  2  0  0  0  0
 20 44  1  0  0  0  0
 21 22  2  0  0  0  0
 21 45  1  0  0  0  0
 22 23  1  0  0  0  0
 23 46  1  0  0  0  0
 24 47  1  0  0  0  0
 24 48  1  0  0  0  0
 24 49  1  0  0  0  0
 25 26  1  0  0  0  0
 26 27  1  0  0  0  0
 26 28  2  0  0  0  0
 27 29  2  0  0  0  0
 27 30  1  0  0  0  0
 28 31  1  0  0  0  0
 28 51  1  0  0  0  0
 29 32  1  0  0  0  0
 29 52  1  0  0  0  0
 30 53  1  0  0  0  0
 30 54  1  0  0  0  0
 30 55  1  0  0  0  0
 31 32  2  0  0  0  0
 31 56  1  0  0  0  0
 32 57  1  0  0  0  0
M  END
> <PUBCHEM_COMPOUND_CID>
216237

> <PUBCHEM_COMPOUND_CANONICALIZED>
1

> <PUBCHEM_CACTVS_COMPLEXITY>
674

> <PUBCHEM_CACTVS_HBOND_ACCEPTOR>
3

> <PUBCHEM_CACTVS_HBOND_DONOR>
2

> <PUBCHEM_CACTVS_ROTATABLE_BOND>
3

> <PUBCHEM_CACTVS_SUBSKEYS>
AAADceB7MAAEAAAAAAAAAAAAAAAAAAAAAAAwYMAABYAAAAABUAAAHgIQCAAADB7hmCYywIPAAgCIAiVSUACCAAAlBwAIiAEIbsgINjLBl5GEcQhm1gHI2Ye4yaCeiABAYAASAAAQAIDAACQAAAAAAAAAAA==

> <PUBCHEM_IUPAC_OPENEYE_NAME>
N-[4-(7-chloro-5-hydroxy-2,3,4,5-tetrahydro-1-benzazepine-1-carbonyl)-3-methyl-phenyl]-2-methyl-benzamide

> <PUBCHEM_IUPAC_CAS_NAME>
N-[4-[(7-chloro-5-hydroxy-2,3,4,5-tetrahydro-1-benzazepin-1-yl)-oxomethyl]-3-methylphenyl]-2-methylbenzamide

> <PUBCHEM_IUPAC_NAME_MARKUP>
<I>N</I>-[4-(7-chloro-5-hydroxy-2,3,4,5-tetrahydro-1-benzazepine-1-carbonyl)-3-methylphenyl]-2-methylbenzamide

> <PUBCHEM_IUPAC_NAME>
N-[4-(7-chloro-5-hydroxy-2,3,4,5-tetrahydro-1-benzazepine-1-carbonyl)-3-methylphenyl]-2-methylbenzamide

> <PUBCHEM_IUPAC_SYSTEMATIC_NAME>
N-[4-[(7-chloranyl-5-oxidanyl-2,3,4,5-tetrahydro-1-benzazepin-1-yl)carbonyl]-3-methyl-phenyl]-2-methyl-benzamide

> <PUBCHEM_IUPAC_TRADITIONAL_NAME>
N-[4-(7-chloro-5-hydroxy-2,3,4,5-tetrahydro-1-benzazepine-1-carbonyl)-3-methyl-phenyl]-2-methyl-benzamide

> <PUBCHEM_IUPAC_INCHI>
InChI=1S/C26H25ClN2O3/c1-16-6-3-4-7-20(16)25(31)28-19-10-11-21(17(2)14-19)26(32)29-13-5-8-24(30)22-15-18(27)9-12-23(22)29/h3-4,6-7,9-12,14-15,24,30H,5,8,13H2,1-2H3,(H,28,31)

> <PUBCHEM_IUPAC_INCHIKEY>
GYHCTFXIZSNGJT-UHFFFAOYSA-N

> <PUBCHEM_XLOGP3_AA>
4.8

> <PUBCHEM_EXACT_MASS>
448.1553704

> <PUBCHEM_MOLECULAR_FORMULA>
C26H25ClN2O3

> <PUBCHEM_MOLECULAR_WEIGHT>
448.9

> <PUBCHEM_OPENEYE_CAN_SMILES>
CC1=CC=CC=C1C(=O)NC2=CC(=C(C=C2)C(=O)N3CCCC(C4=C3C=CC(=C4)Cl)O)C

> <PUBCHEM_OPENEYE_ISO_SMILES>
CC1=CC=CC=C1C(=O)NC2=CC(=C(C=C2)C(=O)N3CCCC(C4=C3C=CC(=C4)Cl)O)C

> <PUBCHEM_CACTVS_TPSA>
69.6

> <PUBCHEM_MONOISOTOPIC_WEIGHT>
448.1553704

> <PUBCHEM_TOTAL_CHARGE>
0

> <PUBCHEM_HEAVY_ATOM_COUNT>
32

> <PUBCHEM_ATOM_DEF_STEREO_COUNT>
0

> <PUBCHEM_ATOM_UDEF_STEREO_COUNT>
1

> <PUBCHEM_BOND_DEF_STEREO_COUNT>
0

> <PUBCHEM_BOND_UDEF_STEREO_COUNT>
0

> <PUBCHEM_ISOTOPIC_ATOM_COUNT>
0

> <PUBCHEM_COMPONENT_COUNT>
1

> <PUBCHEM_CACTVS_TAUTO_COUNT>
-1

> <PUBCHEM_COORDINATE_TYPE>
1
5
255

> <PUBCHEM_BONDANNOTATIONS>
11  12  8
11  14  8
12  15  8
14  17  8
15  18  8
16  19  8
16  20  8
17  18  8
19  21  8
9  2  3
20  23  8
21  22  8
22  23  8
26  27  8
26  28  8
27  29  8
28  31  8
29  32  8
31  32  8

$$$$
